recall.rec: written by SWAT+ editor v2.0.4 on 2022-01-28 14:45
      id  name               rec_typ  file              
       1  pt2                      4  pt2               
