1
    SWAT Sep 7    VER 2018/Rev 670                                                                       0/ 0/   0      0: 0: 0

    General Input/Output section (file.cio):                                        
    1/17/2019 12:00:00 AM ARCGIS-SWAT interface AV                                  
                                                                                    
         Number of years in run:   10
         Area of watershed:       82.311 km2
         Random number generator cycles: 0, use default numbers

         Initial random number seed: wet/dry day prob        748932582
         Initial random number seed: radiation              1948832765
         Initial random number seed: precipitation           857034417
         Initial random number seed: 0.5 hr rainfall          67377721
         Initial random number seed: wind speed              366304404
         Initial random number seed: irrigation             1094585182
         Initial random number seed: relative humidity      1767585417
         Initial random number seed: max temperature         608439319
         Initial random number seed: min temperature         592757081

         Precipitation data used in run:
          Multiple gages read for watershed
             Daily rainfall data used

         Temperature data used in run:
          Multiple gages read for watershed

         PET method used: Penman-Monteith

         Rainfall/Runoff/Routing Option:
          Daily rainfall data
          Runoff estimated with curve number method
          Daily stream routing
           Muskingum routing method
           Channel dimensions remain constant
           Subbasin algae/CBOD loadings not modeled
           In-stream nutrient transformations modeled using QUAL2E equations

         Subbasin Input Summary:
          Sub Latitude  Elev(m) #HRUs Ponds Elevbnds Wetlnd
            1    51.70   516.37    16                   
            2    51.70   474.61    20                   
            3    51.70   477.38     7                   
            4    51.70   659.57    19                   
            5    51.70   603.56    14                   

         HRU Input Summary Table 1:
          Sub   HRU   Area(ha) Slope SlpLgth(m) Ovrlnd_N CondII_CN TimeConc(hr) ESCO EPCO
            1      1       0.28 0.032      91.46    0.100     66.22        0.590 0.95 1.00
            1      2       0.76 0.186      18.29    0.100     66.22        0.133 0.95 1.00
            1      3       7.55 0.202      15.24    0.100     66.22        0.121 0.95 1.00
            1      4       1.88 0.034      91.46    0.100     66.22        0.580 0.95 1.00
            1      5      45.88 0.266       9.15    0.150     69.00        0.127 0.95 1.00
            1      6       5.48 0.039      91.46    0.150     69.00        0.712 0.95 1.00
            1      7       0.24 0.245      15.24    0.100     66.00        0.109 0.95 1.00
            1      8     680.46 0.391       9.15    0.100     66.00        0.351 0.95 1.00
            1      9      12.43 0.036      91.46    0.100     66.00        0.577 0.95 1.00
            1     10       1.44 0.263       9.15    0.100     45.00        0.080 0.95 1.00
            1     11      14.51 0.035      91.46    0.100     55.00        0.583 0.95 1.00
            1     12     473.26 0.267       9.15    0.100     55.00        0.283 0.95 1.00
            1     13     139.81 0.203      15.24    0.100     35.00        0.186 0.95 1.00
            1     14       2.20 0.034      91.46    0.100     35.00        0.580 0.95 1.00
            1     15       2.52 0.032      91.46    0.150     39.00        0.754 0.95 1.00
            1     16      10.67 0.127      24.39    0.150     39.00        0.232 0.95 1.00
            2     17       0.96 0.030      91.46    0.100     66.22        0.602 0.95 1.00
            2     18       1.20 0.091      60.98    0.100     66.22        0.339 0.95 1.00
            2     19      20.34 0.026      91.46    0.100     66.22        0.639 0.95 1.00
            2     20      42.77 0.295       9.15    0.100     66.22        0.098 0.95 1.00
            2     21       0.04 0.042      91.46    0.150     69.00        0.693 0.95 1.00
            2     22       2.16 0.262       9.15    0.150     69.00        0.102 0.95 1.00
            2     23       0.84 0.245      15.24    0.100     66.00        0.110 0.95 1.00
            2     24       0.36 0.037      91.46    0.100     66.00        0.564 0.95 1.00
            2     25      26.22 0.027      91.46    0.100     66.00        0.634 0.95 1.00
            2     26    1009.24 0.415       9.15    0.100     66.00        0.419 0.95 1.00
            2     27       1.16 0.256       9.15    0.100     55.00        0.080 0.95 1.00
            2     28     784.30 0.368       9.15    0.100     55.00        0.352 0.95 1.00
            2     29      26.50 0.032      91.46    0.100     55.00        0.604 0.95 1.00
            2     30       0.56 0.036      91.46    0.100     35.00        0.569 0.95 1.00
            2     31     161.11 0.294       9.15    0.100     35.00        0.146 0.95 1.00
            2     32     265.07 0.416       9.15    0.100     60.00        0.177 0.95 1.00
            2     33       6.55 0.033      91.46    0.100     60.00        0.588 0.95 1.00
            2     34       1.64 0.415       9.15    0.100     36.00        0.070 0.95 1.00
            2     35       3.16 0.033      91.46    0.150     39.00        0.747 0.95 1.00
            2     36      40.81 0.167      18.29    0.150     39.00        0.195 0.95 1.00
            3     37      10.27 0.358       9.15    0.100     66.22        0.084 0.95 1.00
            3     38       6.24 0.027      91.46    0.100     66.22        0.628 0.95 1.00
            3     39      17.23 0.511       9.15    0.100     66.00        0.083 0.95 1.00
            3     40      95.32 0.363       9.15    0.100     55.00        0.156 0.95 1.00
            3     41       0.56 0.034      91.46    0.100     55.00        0.580 0.95 1.00
            3     42       0.96 0.026      91.46    0.100     60.00        0.629 0.95 1.00
            3     43       7.35 0.298       9.15    0.100     60.00        0.085 0.95 1.00
            4     44       2.08 0.031      91.46    0.100     66.22        0.596 0.95 1.00
            4     45       0.56 0.065      60.98    0.100     66.22        0.374 0.95 1.00
            4     46       2.40 0.033      91.46    0.150     69.00        0.746 0.95 1.00
            4     47       8.11 0.172      18.29    0.150     69.00        0.178 0.95 1.00
            4     48      62.47 0.259       9.15    0.100     55.00        0.109 0.95 1.00
            4     49      89.29 0.033      91.46    0.100     55.00        0.624 0.95 1.00
            4     50    1855.84 0.312       9.15    0.100     55.00        0.653 0.95 1.00
            4     51       6.75 0.032      91.46    0.100     35.00        0.593 0.95 1.00
            4     52     258.31 0.216      15.24    0.100     35.00        0.216 0.95 1.00
            4     53       7.95 0.027      91.46    0.100     60.00        0.625 0.95 1.00
            4     54     164.63 0.490       9.15    0.100     60.00        0.135 0.95 1.00
            4     55     116.71 0.138      24.39    0.150     61.00        0.271 0.95 1.00
            4     56      13.79 0.034      91.46    0.150     61.00        0.746 0.95 1.00
            4     57      13.79 0.037      91.46    0.150     61.00        0.727 0.95 1.00
            4     58      22.58 0.079      60.98    0.150     61.00        0.462 0.95 1.00
            4     59     149.24 0.110      60.98    0.150     39.00        0.471 0.95 1.00
            4     60       6.39 0.035      91.46    0.150     39.00        0.736 0.95 1.00
            4     61       0.36 0.061      60.98    0.050     69.00        0.251 0.95 1.00
            4     62       3.56 0.030      91.46    0.050     69.00        0.399 0.95 1.00
            5     63       0.68 0.113      60.98    0.100     66.22        0.317 0.95 1.00
            5     64       1.20 0.031      91.46    0.100     66.22        0.596 0.95 1.00
            5     65      45.40 0.446       9.15    0.100     66.00        0.085 0.95 1.00
            5     66       0.32 0.034      91.46    0.100     66.00        0.579 0.95 1.00
            5     67     937.01 0.357       9.15    0.100     55.00        0.317 0.95 1.00
            5     68      29.66 0.034      91.46    0.100     55.00        0.591 0.95 1.00
            5     69     344.81 0.246      15.24    0.100     35.00        0.211 0.95 1.00
            5     70       0.52 0.035      91.46    0.100     35.00        0.574 0.95 1.00
            5     71       1.96 0.028      91.46    0.100     60.00        0.614 0.95 1.00
            5     72      69.42 0.403       9.15    0.100     60.00        0.094 0.95 1.00
            5     73       8.95 0.313       9.15    0.100     36.00        0.079 0.95 1.00
            5     74       0.08 0.024      91.46    0.100     36.00        0.642 0.95 1.00
            5     75       7.99 0.032      91.46    0.150     39.00        0.755 0.95 1.00
            5     76      65.99 0.141      24.39    0.150     39.00        0.242 0.95 1.00

         HRU CN Input Summary Table:
          Sub   HRU   Area(ha)  LULC      Soil    CN1    CN2    CN3  Wilting Point (mm H2O)  Field Capacity (mm H2O)  Saturation (mm H2O)
            1      1       0.28  BERM  B59H5401   47.0   66.2   83.1                   400.7                     88.0                323.8
            1      2       0.76  BERM  B59H5401   47.0   66.2   83.1                   400.7                     88.0                323.8
            1      3       7.55  BERM  B59H8301   47.0   66.2   83.1                   400.7                     88.0                323.8
            1      4       1.88  BERM  B59H8301   47.0   66.2   83.1                   400.7                     88.0                323.8
            1      5      45.88  PAST  B59H8301   50.1   69.0   85.0                   400.7                     88.0                323.8
            1      6       5.48  PAST  B59H8301   50.1   69.0   85.0                   400.7                     88.0                323.8
            1      7       0.24  FRSD  B59H5401   46.8   66.0   83.0                   400.7                     88.0                323.8
            1      8     680.46  FRSD  B59H8301   46.8   66.0   83.0                   400.7                     88.0                323.8
            1      9      12.43  FRSD  B59H8301   46.8   66.0   83.0                   400.7                     88.0                323.8
            1     10       1.44  FRSD  B63H8301   25.1   45.0   65.2                    10.0                    119.0                918.3
            1     11      14.51  FRSE  B59H8301   35.3   55.0   74.5                   400.7                     88.0                323.8
            1     12     473.26  FRSE  B59H8301   35.3   55.0   74.5                   400.7                     88.0                323.8
            1     13     139.81  FRSE  B63H8301   15.1   35.0   54.2                    10.0                    119.0                918.3
            1     14       2.20  FRSE  B63H8301   15.1   35.0   54.2                    10.0                    119.0                918.3
            1     15       2.52  RNGB  B63H8301   19.1   39.0   58.8                    10.0                    119.0                918.3
            1     16      10.67  RNGB  B63H8301   19.1   39.0   58.8                    10.0                    119.0                918.3
            2     17       0.96  BERM  B59H5401   47.0   66.2   83.1                   400.7                     88.0                323.8
            2     18       1.20  BERM  B59H5401   47.0   66.2   83.1                   400.7                     88.0                323.8
            2     19      20.34  BERM  B59H8301   47.0   66.2   83.1                   400.7                     88.0                323.8
            2     20      42.77  BERM  B59H8301   47.0   66.2   83.1                   400.7                     88.0                323.8
            2     21       0.04  PAST  B59H5401   50.1   69.0   85.0                   400.7                     88.0                323.8
            2     22       2.16  PAST  B59H5401   50.1   69.0   85.0                   400.7                     88.0                323.8
            2     23       0.84  FRSD  B59H5401   46.8   66.0   83.0                   400.7                     88.0                323.8
            2     24       0.36  FRSD  B59H5401   46.8   66.0   83.0                   400.7                     88.0                323.8
            2     25      26.22  FRSD  B59H8301   46.8   66.0   83.0                   400.7                     88.0                323.8
            2     26    1009.24  FRSD  B59H8301   46.8   66.0   83.0                   400.7                     88.0                323.8
            2     27       1.16  FRSE  B59H5401   35.3   55.0   74.5                   400.7                     88.0                323.8
            2     28     784.30  FRSE  B59H8301   35.3   55.0   74.5                   400.7                     88.0                323.8
            2     29      26.50  FRSE  B59H8301   35.3   55.0   74.5                   400.7                     88.0                323.8
            2     30       0.56  FRSE  B63H8301   15.1   35.0   54.2                    10.0                    119.0                918.3
            2     31     161.11  FRSE  B63H8301   15.1   35.0   54.2                    10.0                    119.0                918.3
            2     32     265.07  FRST  B59H8301   40.5   60.0   78.5                   400.7                     88.0                323.8
            2     33       6.55  FRST  B59H8301   40.5   60.0   78.5                   400.7                     88.0                323.8
            2     34       1.64  FRST  B63H8301   16.1   36.0   55.4                    10.0                    119.0                918.3
            2     35       3.16  RNGB  B63H8301   19.1   39.0   58.8                    10.0                    119.0                918.3
            2     36      40.81  RNGB  B63H8301   19.1   39.0   58.8                    10.0                    119.0                918.3
            3     37      10.27  BERM  B59H8301   47.0   66.2   83.1                   400.7                     88.0                323.8
            3     38       6.24  BERM  B59H8301   47.0   66.2   83.1                   400.7                     88.0                323.8
            3     39      17.23  FRSD  B59H8301   46.8   66.0   83.0                   400.7                     88.0                323.8
            3     40      95.32  FRSE  B59H8301   35.3   55.0   74.5                   400.7                     88.0                323.8
            3     41       0.56  FRSE  B59H8301   35.3   55.0   74.5                   400.7                     88.0                323.8
            3     42       0.96  FRST  B59H8301   40.5   60.0   78.5                   400.7                     88.0                323.8
            3     43       7.35  FRST  B59H8301   40.5   60.0   78.5                   400.7                     88.0                323.8
            4     44       2.08  BERM  B59H8301   47.0   66.2   83.1                   400.7                     88.0                323.8
            4     45       0.56  BERM  B59H8301   47.0   66.2   83.1                   400.7                     88.0                323.8
            4     46       2.40  PAST  B59H8301   50.1   69.0   85.0                   400.7                     88.0                323.8
            4     47       8.11  PAST  B59H8301   50.1   69.0   85.0                   400.7                     88.0                323.8
            4     48      62.47  FRSE  B07H8301   35.3   55.0   74.5                   247.9                    442.3                589.1
            4     49      89.29  FRSE  B59H8301   35.3   55.0   74.5                   400.7                     88.0                323.8
            4     50    1855.84  FRSE  B59H8301   35.3   55.0   74.5                   400.7                     88.0                323.8
            4     51       6.75  FRSE  B63H8301   15.1   35.0   54.2                    10.0                    119.0                918.3
            4     52     258.31  FRSE  B63H8301   15.1   35.0   54.2                    10.0                    119.0                918.3
            4     53       7.95  FRST  B59H8301   40.5   60.0   78.5                   400.7                     88.0                323.8
            4     54     164.63  FRST  B59H8301   40.5   60.0   78.5                   400.7                     88.0                323.8
            4     55     116.71  RNGB  B07H8301   41.5   61.0   79.3                   247.9                    442.3                589.1
            4     56      13.79  RNGB  B07H8301   41.5   61.0   79.3                   247.9                    442.3                589.1
            4     57      13.79  RNGB  B59H8301   41.5   61.0   79.3                   400.7                     88.0                323.8
            4     58      22.58  RNGB  B59H8301   41.5   61.0   79.3                   400.7                     88.0                323.8
            4     59     149.24  RNGB  B63H8301   19.1   39.0   58.8                    10.0                    119.0                918.3
            4     60       6.39  RNGB  B63H8301   19.1   39.0   58.8                    10.0                    119.0                918.3
            4     61       0.36  WETN  B59H8301   50.1   69.0   85.0                   400.7                     88.0                323.8
            4     62       3.56  WETN  B59H8301   50.1   69.0   85.0                   400.7                     88.0                323.8
            5     63       0.68  BERM  B59H8301   47.0   66.2   83.1                   400.7                     88.0                323.8
            5     64       1.20  BERM  B59H8301   47.0   66.2   83.1                   400.7                     88.0                323.8
            5     65      45.40  FRSD  B59H8301   46.8   66.0   83.0                   400.7                     88.0                323.8
            5     66       0.32  FRSD  B59H8301   46.8   66.0   83.0                   400.7                     88.0                323.8
            5     67     937.01  FRSE  B59H8301   35.3   55.0   74.5                   400.7                     88.0                323.8
            5     68      29.66  FRSE  B59H8301   35.3   55.0   74.5                   400.7                     88.0                323.8
            5     69     344.81  FRSE  B63H8301   15.1   35.0   54.2                    10.0                    119.0                918.3
            5     70       0.52  FRSE  B63H8301   15.1   35.0   54.2                    10.0                    119.0                918.3
            5     71       1.96  FRST  B59H8301   40.5   60.0   78.5                   400.7                     88.0                323.8
            5     72      69.42  FRST  B59H8301   40.5   60.0   78.5                   400.7                     88.0                323.8
            5     73       8.95  FRST  B63H8301   16.1   36.0   55.4                    10.0                    119.0                918.3
            5     74       0.08  FRST  B63H8301   16.1   36.0   55.4                    10.0                    119.0                918.3
            5     75       7.99  RNGB  B63H8301   19.1   39.0   58.8                    10.0                    119.0                918.3
            5     76      65.99  RNGB  B63H8301   19.1   39.0   58.8                    10.0                    119.0                918.3

         HRU Input Summary Table 2:
          Sub   HRU   Area(ha)         SoilName Hydgrp MaxRtDpth(mm) Albedo USLE_K USLE_P USLE_LS ProfileAWC(mm) IniSoilH2O(mm)
            1      1       0.28 B59H5401           B           600.00   0.10   0.19   1.00    0.50     88.000         47.982
            1      2       0.76 B59H5401           B           600.00   0.10   0.19   1.00    2.75     88.000         47.982
            1      3       7.55 B59H8301           B           600.00   0.10   0.19   1.00    2.82     88.000         47.982
            1      4       1.88 B59H8301           B           600.00   0.10   0.19   1.00    0.54     88.000         47.982
            1      5      45.88 B59H8301           B           600.00   0.10   0.19   1.00    3.27     88.000         47.982
            1      6       5.48 B59H8301           B           600.00   0.10   0.19   1.00    0.65     88.000         47.982
            1      7       0.24 B59H5401           B           600.00   0.10   0.19   1.00    3.88     88.000         47.982
            1      8     680.46 B59H8301           B           600.00   0.10   0.19   1.00    6.12     88.000         47.982
            1      9      12.43 B59H8301           B           600.00   0.10   0.19   1.00    0.58     88.000         47.982
            1     10       1.44 B63H8301           A           500.00   0.10   0.20   1.00    3.21    119.000         64.885
            1     11      14.51 B59H8301           B           600.00   0.10   0.19   1.00    0.56     88.000         47.982
            1     12     473.26 B59H8301           B           600.00   0.10   0.19   1.00    3.29     88.000         47.982
            1     13     139.81 B63H8301           A           500.00   0.10   0.20   1.00    2.85    119.000         64.885
            1     14       2.20 B63H8301           A           500.00   0.10   0.20   1.00    0.54    119.000         64.885
            1     15       2.52 B63H8301           A           500.00   0.10   0.20   1.00    0.50    119.000         64.885
            1     16      10.67 B63H8301           A           500.00   0.10   0.20   1.00    1.78    119.000         64.885
            2     17       0.96 B59H5401           B           600.00   0.10   0.19   1.00    0.46     88.000         47.982
            2     18       1.20 B59H5401           B           600.00   0.10   0.19   1.00    1.82     88.000         47.982
            2     19      20.34 B59H8301           B           600.00   0.10   0.19   1.00    0.38     88.000         47.982
            2     20      42.77 B59H8301           B           600.00   0.10   0.19   1.00    3.88     88.000         47.982
            2     21       0.04 B59H5401           B           600.00   0.10   0.19   1.00    0.72     88.000         47.982
            2     22       2.16 B59H5401           B           600.00   0.10   0.19   1.00    3.19     88.000         47.982
            2     23       0.84 B59H5401           B           600.00   0.10   0.19   1.00    3.88     88.000         47.982
            2     24       0.36 B59H5401           B           600.00   0.10   0.19   1.00    0.60     88.000         47.982
            2     25      26.22 B59H8301           B           600.00   0.10   0.19   1.00    0.40     88.000         47.982
            2     26    1009.24 B59H8301           B           600.00   0.10   0.19   1.00    6.72     88.000         47.982
            2     27       1.16 B59H5401           B           600.00   0.10   0.19   1.00    3.07     88.000         47.982
            2     28     784.30 B59H8301           B           600.00   0.10   0.19   1.00    5.56     88.000         47.982
            2     29      26.50 B59H8301           B           600.00   0.10   0.19   1.00    0.50     88.000         47.982
            2     30       0.56 B63H8301           A           500.00   0.10   0.20   1.00    0.58    119.000         64.885
            2     31     161.11 B63H8301           A           500.00   0.10   0.20   1.00    3.86    119.000         64.885
            2     32     265.07 B59H8301           B           600.00   0.10   0.19   1.00    6.75     88.000         47.982
            2     33       6.55 B59H8301           B           600.00   0.10   0.19   1.00    0.52     88.000         47.982
            2     34       1.64 B63H8301           A           500.00   0.10   0.20   1.00    6.72    119.000         64.885
            2     35       3.16 B63H8301           A           500.00   0.10   0.20   1.00    0.52    119.000         64.885
            2     36      40.81 B63H8301           A           500.00   0.10   0.20   1.00    2.31    119.000         64.885
            3     37      10.27 B59H8301           B           600.00   0.10   0.19   1.00    5.32     88.000         47.982
            3     38       6.24 B59H8301           B           600.00   0.10   0.19   1.00    0.40     88.000         47.982
            3     39      17.23 B59H8301           B           600.00   0.10   0.19   1.00    9.23     88.000         47.982
            3     40      95.32 B59H8301           B           600.00   0.10   0.19   1.00    5.44     88.000         47.982
            3     41       0.56 B59H8301           B           600.00   0.10   0.19   1.00    0.54     88.000         47.982
            3     42       0.96 B59H8301           B           600.00   0.10   0.19   1.00    0.38     88.000         47.982
            3     43       7.35 B59H8301           B           600.00   0.10   0.19   1.00    3.94     88.000         47.982
            4     44       2.08 B59H8301           B           600.00   0.10   0.19   1.00    0.48     88.000         47.982
            4     45       0.56 B59H8301           B           600.00   0.10   0.19   1.00    1.10     88.000         47.982
            4     46       2.40 B59H8301           B           600.00   0.10   0.19   1.00    0.52     88.000         47.982
            4     47       8.11 B59H8301           B           600.00   0.10   0.19   1.00    2.42     88.000         47.982
            4     48      62.47 B07H8301           B           200.00   0.10   0.26   1.00    3.13    442.275        241.152
            4     49      89.29 B59H8301           B           600.00   0.10   0.19   1.00    0.52     88.000         47.982
            4     50    1855.84 B59H8301           B           600.00   0.10   0.19   1.00    4.25     88.000         47.982
            4     51       6.75 B63H8301           A           500.00   0.10   0.20   1.00    0.50    119.000         64.885
            4     52     258.31 B63H8301           A           500.00   0.10   0.20   1.00    3.15    119.000         64.885
            4     53       7.95 B59H8301           B           600.00   0.10   0.19   1.00    0.40     88.000         47.982
            4     54     164.63 B59H8301           B           600.00   0.10   0.19   1.00    8.67     88.000         47.982
            4     55     116.71 B07H8301           B           200.00   0.10   0.26   1.00    2.02    442.275        241.152
            4     56      13.79 B07H8301           B           200.00   0.10   0.26   1.00    0.54    442.275        241.152
            4     57      13.79 B59H8301           B           600.00   0.10   0.19   1.00    0.60     88.000         47.982
            4     58      22.58 B59H8301           B           600.00   0.10   0.19   1.00    1.47     88.000         47.982
            4     59     149.24 B63H8301           A           500.00   0.10   0.20   1.00    2.44    119.000         64.885
            4     60       6.39 B63H8301           A           500.00   0.10   0.20   1.00    0.56    119.000         64.885
            4     61       0.36 B59H8301           B           600.00   0.10   0.19   1.00    1.00     88.000         47.982
            4     62       3.56 B59H8301           B           600.00   0.10   0.19   1.00    0.46     88.000         47.982
            5     63       0.68 B59H8301           B           600.00   0.10   0.19   1.00    2.55     88.000         47.982
            5     64       1.20 B59H8301           B           600.00   0.10   0.19   1.00    0.48     88.000         47.982
            5     65      45.40 B59H8301           B           600.00   0.10   0.19   1.00    7.52     88.000         47.982
            5     66       0.32 B59H8301           B           600.00   0.10   0.19   1.00    0.54     88.000         47.982
            5     67     937.01 B59H8301           B           600.00   0.10   0.19   1.00    5.29     88.000         47.982
            5     68      29.66 B59H8301           B           600.00   0.10   0.19   1.00    0.54     88.000         47.982
            5     69     344.81 B63H8301           A           500.00   0.10   0.20   1.00    3.91    119.000         64.885
            5     70       0.52 B63H8301           A           500.00   0.10   0.20   1.00    0.56    119.000         64.885
            5     71       1.96 B59H8301           B           600.00   0.10   0.19   1.00    0.42     88.000         47.982
            5     72      69.42 B59H8301           B           600.00   0.10   0.19   1.00    6.42     88.000         47.982
            5     73       8.95 B63H8301           A           500.00   0.10   0.20   1.00    4.27    119.000         64.885
            5     74       0.08 B63H8301           A           500.00   0.10   0.20   1.00    0.35    119.000         64.885
            5     75       7.99 B63H8301           A           500.00   0.10   0.20   1.00    0.50    119.000         64.885
            5     76      65.99 B63H8301           A           500.00   0.10   0.20   1.00    2.09    119.000         64.885

         HRU Input Summary Table 3:
          Sub   HRU   Area(ha) Urban Irrig DrainTiles Pothole Pstcide Biomix Septic
            1      1       0.28   x                                      0.20 x
            1      2       0.76   x                                      0.20 x
            1      3       7.55   x                                      0.20 x
            1      4       1.88   x                                      0.20 x
            1      5      45.88                                          0.20 x
            1      6       5.48                                          0.20 x
            1      7       0.24                                          0.20 x
            1      8     680.46                                          0.20 x
            1      9      12.43                                          0.20 x
            1     10       1.44                                          0.20 x
            1     11      14.51                                          0.20 x
            1     12     473.26                                          0.20 x
            1     13     139.81                                          0.20 x
            1     14       2.20                                          0.20 x
            1     15       2.52                                          0.20 x
            1     16      10.67                                          0.20 x
            2     17       0.96   x                                      0.20 x
            2     18       1.20   x                                      0.20 x
            2     19      20.34   x                                      0.20 x
            2     20      42.77   x                                      0.20 x
            2     21       0.04                                          0.20 x
            2     22       2.16                                          0.20 x
            2     23       0.84                                          0.20 x
            2     24       0.36                                          0.20 x
            2     25      26.22                                          0.20 x
            2     26    1009.24                                          0.20 x
            2     27       1.16                                          0.20 x
            2     28     784.30                                          0.20 x
            2     29      26.50                                          0.20 x
            2     30       0.56                                          0.20 x
            2     31     161.11                                          0.20 x
            2     32     265.07                                          0.20 x
            2     33       6.55                                          0.20 x
            2     34       1.64                                          0.20 x
            2     35       3.16                                          0.20 x
            2     36      40.81                                          0.20 x
            3     37      10.27   x                                      0.20 x
            3     38       6.24   x                                      0.20 x
            3     39      17.23                                          0.20 x
            3     40      95.32                                          0.20 x
            3     41       0.56                                          0.20 x
            3     42       0.96                                          0.20 x
            3     43       7.35                                          0.20 x
            4     44       2.08   x                                      0.20 x
            4     45       0.56   x                                      0.20 x
            4     46       2.40                                          0.20 x
            4     47       8.11                                          0.20 x
            4     48      62.47                                          0.20 x
            4     49      89.29                                          0.20 x
            4     50    1855.84                                          0.20 x
            4     51       6.75                                          0.20 x
            4     52     258.31                                          0.20 x
            4     53       7.95                                          0.20 x
            4     54     164.63                                          0.20 x
            4     55     116.71                                          0.20 x
            4     56      13.79                                          0.20 x
            4     57      13.79                                          0.20 x
            4     58      22.58                                          0.20 x
            4     59     149.24                                          0.20 x
            4     60       6.39                                          0.20 x
            4     61       0.36                                          0.20 x
            4     62       3.56                                          0.20 x
            5     63       0.68   x                                      0.20 x
            5     64       1.20   x                                      0.20 x
            5     65      45.40                                          0.20 x
            5     66       0.32                                          0.20 x
            5     67     937.01                                          0.20 x
            5     68      29.66                                          0.20 x
            5     69     344.81                                          0.20 x
            5     70       0.52                                          0.20 x
            5     71       1.96                                          0.20 x
            5     72      69.42                                          0.20 x
            5     73       8.95                                          0.20 x
            5     74       0.08                                          0.20 x
            5     75       7.99                                          0.20 x
            5     76      65.99                                          0.20 x

         HRU Input Summary Table 4 (Groundwater):
          Sub   HRU   Area(ha) GWdelay(days), GWalpha(days) GWQmin(mm) GWrevap Revapmin(mm) Deepfr NO3(ppm) SolP(ppm)
            1      1       0.28        31.000         0.048   1000.000   0.020      750.000  1.000    0.000     0.000
            1      2       0.76        31.000         0.048   1000.000   0.020      750.000  1.000    0.000     0.000
            1      3       7.55        31.000         0.048   1000.000   0.020      750.000  1.000    0.000     0.000
            1      4       1.88        31.000         0.048   1000.000   0.020      750.000  1.000    0.000     0.000
            1      5      45.88        31.000         0.048   1000.000   0.020      750.000  1.000    0.000     0.000
            1      6       5.48        31.000         0.048   1000.000   0.020      750.000  1.000    0.000     0.000
            1      7       0.24        31.000         0.048   1000.000   0.020      750.000  1.000    0.000     0.000
            1      8     680.46        31.000         0.048   1000.000   0.020      750.000  1.000    0.000     0.000
            1      9      12.43        31.000         0.048   1000.000   0.020      750.000  1.000    0.000     0.000
            1     10       1.44        31.000         0.048   1000.000   0.020      750.000  1.000    0.000     0.000
            1     11      14.51        31.000         0.048   1000.000   0.020      750.000  1.000    0.000     0.000
            1     12     473.26        31.000         0.048   1000.000   0.020      750.000  1.000    0.000     0.000
            1     13     139.81        31.000         0.048   1000.000   0.020      750.000  1.000    0.000     0.000
            1     14       2.20        31.000         0.048   1000.000   0.020      750.000  1.000    0.000     0.000
            1     15       2.52        31.000         0.048   1000.000   0.020      750.000  1.000    0.000     0.000
            1     16      10.67        31.000         0.048   1000.000   0.020      750.000  1.000    0.000     0.000
            2     17       0.96        31.000         0.048   1000.000   0.020      750.000  0.500    0.000     0.000
            2     18       1.20        31.000         0.048   1000.000   0.020      750.000  0.500    0.000     0.000
            2     19      20.34        31.000         0.048   1000.000   0.020      750.000  0.500    0.000     0.000
            2     20      42.77        31.000         0.048   1000.000   0.020      750.000  0.500    0.000     0.000
            2     21       0.04        31.000         0.048   1000.000   0.020      750.000  0.500    0.000     0.000
            2     22       2.16        31.000         0.048   1000.000   0.020      750.000  0.500    0.000     0.000
            2     23       0.84        31.000         0.048   1000.000   0.020      750.000  0.500    0.000     0.000
            2     24       0.36        31.000         0.048   1000.000   0.020      750.000  0.500    0.000     0.000
            2     25      26.22        31.000         0.048   1000.000   0.020      750.000  0.500    0.000     0.000
            2     26    1009.24        31.000         0.048   1000.000   0.020      750.000  0.500    0.000     0.000
            2     27       1.16        31.000         0.048   1000.000   0.020      750.000  0.500    0.000     0.000
            2     28     784.30        31.000         0.048   1000.000   0.020      750.000  0.500    0.000     0.000
            2     29      26.50        31.000         0.048   1000.000   0.020      750.000  0.500    0.000     0.000
            2     30       0.56        31.000         0.048   1000.000   0.020      750.000  0.500    0.000     0.000
            2     31     161.11        31.000         0.048   1000.000   0.020      750.000  0.500    0.000     0.000
            2     32     265.07        31.000         0.048   1000.000   0.020      750.000  0.500    0.000     0.000
            2     33       6.55        31.000         0.048   1000.000   0.020      750.000  0.500    0.000     0.000
            2     34       1.64        31.000         0.048   1000.000   0.020      750.000  0.500    0.000     0.000
            2     35       3.16        31.000         0.048   1000.000   0.020      750.000  0.500    0.000     0.000
            2     36      40.81        31.000         0.048   1000.000   0.020      750.000  0.500    0.000     0.000
            3     37      10.27        31.000         0.048   1000.000   0.020      750.000  0.000    0.000     0.000
            3     38       6.24        31.000         0.048   1000.000   0.020      750.000  0.000    0.000     0.000
            3     39      17.23        31.000         0.048   1000.000   0.020      750.000  0.000    0.000     0.000
            3     40      95.32        31.000         0.048   1000.000   0.020      750.000  0.000    0.000     0.000
            3     41       0.56        31.000         0.048   1000.000   0.020      750.000  0.000    0.000     0.000
            3     42       0.96        31.000         0.048   1000.000   0.020      750.000  0.000    0.000     0.000
            3     43       7.35        31.000         0.048   1000.000   0.020      750.000  0.000    0.000     0.000
            4     44       2.08        31.000         0.048   1000.000   0.020      750.000  0.000    0.000     0.000
            4     45       0.56        31.000         0.048   1000.000   0.020      750.000  0.000    0.000     0.000
            4     46       2.40        31.000         0.048   1000.000   0.020      750.000  0.000    0.000     0.000
            4     47       8.11        31.000         0.048   1000.000   0.020      750.000  0.000    0.000     0.000
            4     48      62.47        31.000         0.048   1000.000   0.020      750.000  0.000    0.000     0.000
            4     49      89.29        31.000         0.048   1000.000   0.020      750.000  0.000    0.000     0.000
            4     50    1855.84        31.000         0.048   1000.000   0.020      750.000  0.000    0.000     0.000
            4     51       6.75        31.000         0.048   1000.000   0.020      750.000  0.000    0.000     0.000
            4     52     258.31        31.000         0.048   1000.000   0.020      750.000  0.000    0.000     0.000
            4     53       7.95        31.000         0.048   1000.000   0.020      750.000  0.000    0.000     0.000
            4     54     164.63        31.000         0.048   1000.000   0.020      750.000  0.000    0.000     0.000
            4     55     116.71        31.000         0.048   1000.000   0.020      750.000  0.000    0.000     0.000
            4     56      13.79        31.000         0.048   1000.000   0.020      750.000  0.000    0.000     0.000
            4     57      13.79        31.000         0.048   1000.000   0.020      750.000  0.000    0.000     0.000
            4     58      22.58        31.000         0.048   1000.000   0.020      750.000  0.000    0.000     0.000
            4     59     149.24        31.000         0.048   1000.000   0.020      750.000  0.000    0.000     0.000
            4     60       6.39        31.000         0.048   1000.000   0.020      750.000  0.000    0.000     0.000
            4     61       0.36        31.000         0.048   1000.000   0.020      750.000  0.000    0.000     0.000
            4     62       3.56        31.000         0.048   1000.000   0.020      750.000  0.000    0.000     0.000
            5     63       0.68        31.000         0.048   1000.000   0.020      750.000  0.000    0.000     0.000
            5     64       1.20        31.000         0.048   1000.000   0.020      750.000  0.000    0.000     0.000
            5     65      45.40        31.000         0.048   1000.000   0.020      750.000  0.000    0.000     0.000
            5     66       0.32        31.000         0.048   1000.000   0.020      750.000  0.000    0.000     0.000
            5     67     937.01        31.000         0.048   1000.000   0.020      750.000  0.000    0.000     0.000
            5     68      29.66        31.000         0.048   1000.000   0.020      750.000  0.000    0.000     0.000
            5     69     344.81        31.000         0.048   1000.000   0.020      750.000  0.000    0.000     0.000
            5     70       0.52        31.000         0.048   1000.000   0.020      750.000  0.000    0.000     0.000
            5     71       1.96        31.000         0.048   1000.000   0.020      750.000  0.000    0.000     0.000
            5     72      69.42        31.000         0.048   1000.000   0.020      750.000  0.000    0.000     0.000
            5     73       8.95        31.000         0.048   1000.000   0.020      750.000  0.000    0.000     0.000
            5     74       0.08        31.000         0.048   1000.000   0.020      750.000  0.000    0.000     0.000
            5     75       7.99        31.000         0.048   1000.000   0.020      750.000  0.000    0.000     0.000
            5     76      65.99        31.000         0.048   1000.000   0.020      750.000  0.000    0.000     0.000

         Tributary/Main Channel Characteristics
              |--------------Tributary--------------------|---------------------Main-------------------------------------|
          Sub  Length(km) Slope Width(m) Cond(mm/hr)     N Length(km) Slope Width(m) Depth(m) Cond(mm/hr)     N      MSK_K
              1        8.70 0.040     6.28      0.0000 0.014       8.70 0.040     6.28     0.37      0.0000 0.045     1.26
              2        8.38 0.012     8.67      0.0000 0.014       8.38 0.012    16.27     0.70      0.0000 0.045     1.46
              3        0.92 0.012     1.56      0.0000 0.014       0.92 0.012    12.55     0.59      0.0000 0.045     0.18
              4       14.10 0.035     9.49      0.0000 0.014      14.10 0.035     9.49     0.49      0.0000 0.045     1.82
              5        5.86 0.034     6.59      0.0000 0.014       5.86 0.034     6.59     0.39      0.0000 0.045     0.90
