1
    SWAT Dec 23 2016    VER 2016/Rev 664                                                                 0/ 0/   0      0: 0: 0

    General Input/Output section (file.cio):                                        
    1/17/2019 12:00:00 AM ARCGIS-SWAT interface AV                                  
                                                                                    
         Number of years in run:   10
         Area of watershed:       82.311 km2
1
    SWAT Dec 23 2016    VER 2016/Rev 664                                            

    General Input/Output section (file.cio):                                        
    1/17/2019 12:00:00 AM ARCGIS-SWAT interface AV                                  
                                                                                    
Annual Summary for Watershed in year    1 of simulation

UNIT                                    PERCO    TILE                           WATER     SED     NO3     NO3     NO3     NO3        N       P       P
TIME     PREC    SURQ    LATQ     GWQ    LATE       Q     SW       ET     PET   YIELD   YIELD    SURQ    LATQ    PERC    CROP  ORGANIC SOLUBLE ORGANIC TILENO3
         (mm)    (mm)    (mm)    (mm)    (mm)    (mm)    (mm)    (mm)    (mm)    (mm)   (t/ha)  ------------------(kg nutrient/ha)-------------------- (kg/ha)
    1    9.47    0.01    0.56    0.00    0.00    0.00   63.09    0.17    0.18    0.56    0.00    0.00    0.01    0.00    0.00     0.00    0.00    0.00    0.00
    2    3.04    0.00    0.39    0.00    0.00    0.00   64.69    0.86    0.86    0.40    0.00    0.00    0.01    0.00    0.00     0.00    0.00    0.00    0.00
    3   12.86    0.01    1.32    0.00    0.00    0.00   73.80    1.01    1.01    1.33    0.00    0.00    0.03    0.00    0.00     0.00    0.00    0.00    0.00
    4    1.78    0.00    0.52    0.00    0.00    0.00   73.98    1.29    1.35    0.52    0.00    0.00    0.01    0.00    0.00     0.00    0.00    0.00    0.00
    5    9.22    0.01    1.08    0.00    0.02    0.00   79.28    1.63    1.63    1.09    0.00    0.00    0.02    0.01    0.00     0.00    0.00    0.00    0.00
    6    7.85    0.01    0.91    0.00    0.08    0.00   83.32    0.46    0.54    0.92    0.00    0.00    0.02    0.04    0.00     0.00    0.00    0.00    0.00
    7   22.05    0.74    2.92    0.01    5.02    0.00   93.23    0.63    0.63    3.10    0.01    0.00    0.04    0.85    0.00     0.00    0.00    0.00    0.00
    8    8.56    0.01    2.01    0.02    4.37    0.00   93.41    0.69    0.69    2.15    0.00    0.00    0.04    0.77    0.00     0.00    0.00    0.00    0.00
    9    0.12    0.00    1.00    0.03    1.43    0.00   91.02    0.82    0.91    1.12    0.00    0.00    0.03    0.24    0.00     0.00    0.00    0.00    0.00
   10    0.00    0.00    0.74    0.05    0.38    0.00   89.98    0.60    0.81    0.85    0.00    0.00    0.02    0.06    0.00     0.00    0.00    0.00    0.00
   11    0.00    0.00    0.64    0.06    0.09    0.00   87.90    1.97    3.08    0.75    0.00    0.00    0.02    0.02    0.00     0.00    0.00    0.00    0.00
   12    0.00    0.00    0.57    0.07    0.02    0.00   87.41    0.47    1.01    0.69    0.00    0.00    0.02    0.00    0.00     0.00    0.00    0.00    0.00
   13    0.00    0.00    0.52    0.08    0.01    0.00   86.63    0.77    1.83    0.64    0.00    0.00    0.02    0.00    0.00     0.00    0.00    0.00    0.00
   14    0.84    0.00    0.48    0.09    0.00    0.00   86.63    0.84    1.31    0.60    0.00    0.00    0.01    0.00    0.00     0.00    0.00    0.00    0.00
   15    4.68    0.00    0.62    0.10    0.05    0.00   89.92    0.90    0.90    0.74    0.00    0.00    0.01    0.01    0.00     0.00    0.00    0.00    0.00
   16    7.92    0.01    1.11    0.11    1.96    0.00   93.28    0.24    0.24    1.25    0.00    0.00    0.02    0.32    0.00     0.00    0.00    0.00    0.00
   17    0.19    0.00    0.64    0.12    0.67    0.00   91.65    0.98    1.00    0.77    0.00    0.00    0.02    0.11    0.00     0.00    0.00    0.00    0.00
   18    2.28    0.00    0.66    0.13    0.57    0.00   91.64    1.23    1.23    0.80    0.00    0.00    0.01    0.08    0.00     0.00    0.00    0.00    0.00
   19   18.17    0.16    1.21    0.14    3.00    0.00   94.12    0.28    0.37    1.41    0.00    0.00    0.02    0.46    0.00     0.00    0.00    0.00    0.00
   20   13.00    0.00    0.83    0.15    1.64    0.00   93.39    0.09    0.17    1.02    0.00    0.00    0.02    0.22    0.00     0.00    0.00    0.00    0.00
   21    0.58    0.00    0.62    0.16    0.47    0.00   92.69    0.15    0.30    0.81    0.00    0.00    0.02    0.06    0.00     0.00    0.00    0.00    0.00
   22    0.40    0.00    0.55    0.17    0.12    0.00   92.45    0.10    0.20    0.74    0.00    0.00    0.02    0.02    0.00     0.00    0.00    0.00    0.00
   23    0.98    0.00    0.51    0.18    0.03    0.00   92.21    0.21    0.44    0.70    0.00    0.00    0.01    0.00    0.00     0.00    0.00    0.00    0.00
   24    5.12    0.00    0.47    0.18    0.01    0.00   92.11    0.09    0.19    0.67    0.00    0.00    0.01    0.00    0.00     0.00    0.00    0.00    0.00
   25    0.00    0.00    0.43    0.19    0.00    0.00   91.94    0.17    0.39    0.64    0.00    0.00    0.01    0.00    0.00     0.00    0.00    0.00    0.00
   26    0.00    0.00    0.40    0.19    0.00    0.00   91.88    0.07    0.16    0.61    0.00    0.00    0.01    0.00    0.00     0.00    0.00    0.00    0.00
   27    0.17    0.00    0.37    0.20    0.00    0.00   91.85    0.02    0.05    0.58    0.00    0.00    0.01    0.00    0.00     0.00    0.00    0.00    0.00
   28    1.99    0.00    0.35    0.20    0.00    0.00   91.82    0.04    0.09    0.56    0.00    0.00    0.01    0.00    0.00     0.00    0.00    0.00    0.00
   29    0.49    0.00    0.32    0.21    0.00    0.00   91.78    0.04    0.11    0.53    0.00    0.00    0.01    0.00    0.00     0.00    0.00    0.00    0.00
   30    8.12    0.00    0.30    0.21    0.00    0.00   91.74    0.03    0.08    0.51    0.00    0.00    0.01    0.00    0.00     0.00    0.00    0.00    0.00
   31    0.00    0.00    0.28    0.21    0.00    0.00   91.50    0.24    0.62    0.49    0.00    0.00    0.01    0.00    0.00     0.00    0.00    0.00    0.00
    1  139.89    0.96   23.35    3.25   19.94    0.00   91.50   17.10   22.40   27.54    0.02    0.00    0.52    3.27    0.00     0.00    0.00    0.00    0.00
   32    0.00    0.00    0.26    0.21    0.00    0.00   91.36    0.14    0.39    0.47    0.00    0.00    0.01    0.00    0.00     0.00    0.00    0.00    0.00
   33    7.68    0.00    0.24    0.22    0.00    0.00   91.14    0.22    0.61    0.46    0.00    0.00    0.01    0.00    0.00     0.00    0.00    0.00    0.00
   34    0.18    0.00    0.22    0.22    0.00    0.00   90.99    0.15    0.43    0.44    0.00    0.00    0.01    0.00    0.00     0.00    0.00    0.00    0.00
   35    0.08    0.00    0.21    0.22    0.00    0.00   90.72    0.27    0.82    0.42    0.00    0.00    0.01    0.00    0.00     0.00    0.00    0.00    0.00
   36    0.00    0.00    0.19    0.22    0.00    0.00   92.06    0.03    0.11    0.41    0.00    0.00    0.01    0.00    0.00     0.00    0.00    0.00    0.00
   37    0.00    0.42    0.18    0.22    0.00    0.00   95.70    0.15    0.31    0.51    0.01    0.00    0.00    0.00    0.00     0.00    0.00    0.00    0.00
   38    3.29    0.07    0.16    0.22    0.00    0.00   97.44    0.31    0.75    0.48    0.00    0.00    0.00    0.00    0.00     0.00    0.00    0.00    0.00
   39    0.00    0.51    0.16    0.22    0.15    0.00  100.32    0.12    0.29    0.58    0.01    0.00    0.00    0.05    0.00     0.00    0.00    0.00    0.00
   40    0.00    3.15    0.25    0.22    1.94    0.00  107.97    0.85    1.43    1.48    0.07    0.00    0.01    0.34    0.00     0.00    0.00    0.00    0.00
   41    0.00    1.61    0.74    0.22    1.32    0.00  113.25    1.05    1.51    2.05    0.05    0.00    0.01    0.18    0.00     0.00    0.00    0.00    0.00
   42    0.00    3.10    1.48    0.23    6.92    0.00  109.91    0.86    1.23    3.20    0.08    0.00    0.02    0.75    0.00     0.00    0.00    0.00    0.00
   43    0.00    0.00    2.13    0.24    6.50    0.00   99.35    1.30    1.30    3.42    0.03    0.00    0.02    0.62    0.00     0.00    0.00    0.00    0.00
   44    0.62    0.00    2.06    0.26    2.44    0.00   95.10    0.39    0.39    3.09    0.02    0.00    0.02    0.21    0.00     0.00    0.00    0.00    0.00
   45    0.00    0.00    0.90    0.27    0.59    0.00   92.72    1.69    1.86    1.76    0.01    0.00    0.01    0.05    0.00     0.00    0.00    0.00    0.00
   46    0.00    0.00    0.61    0.29    0.15    0.00   91.17    1.38    2.31    1.36    0.01    0.00    0.01    0.01    0.00     0.00    0.00    0.00    0.00
   47   12.13    0.06    1.50    0.30    3.17    0.00   95.38    1.31    1.31    2.19    0.00    0.00    0.01    0.34    0.00     0.00    0.00    0.00    0.00
   48    0.10    0.00    0.78    0.32    1.03    0.00   93.44    0.81    1.09    1.40    0.00    0.00    0.01    0.11    0.00     0.00    0.00    0.00    0.00
   49    0.00    0.00    0.62    0.33    0.27    0.00   92.20    0.93    1.45    1.19    0.00    0.00    0.01    0.03    0.00     0.00    0.00    0.00    0.00
   50    0.00    0.00    0.55    0.34    0.07    0.00   91.50    0.62    1.12    1.09    0.00    0.00    0.01    0.01    0.00     0.00    0.00    0.00    0.00
   51    0.00    0.00    0.50    0.35    0.02    0.00   91.03    0.45    0.88    1.01    0.00    0.00    0.01    0.00    0.00     0.00    0.00    0.00    0.00
   52    0.00    0.00    0.46    0.36    0.00    0.00   89.67    1.36    2.82    0.95    0.00    0.00    0.01    0.00    0.00     0.00    0.00    0.00    0.00
   53    2.96    0.00    0.50    0.37    0.00    0.00   92.07    0.39    0.41    0.98    0.00    0.00    0.01    0.00    0.00     0.00    0.00    0.00    0.00
   54    0.78    0.00    0.44    0.38    0.00    0.00   91.28    1.52    1.61    0.90    0.00    0.00    0.01    0.00    0.00     0.00    0.00    0.00    0.00
   55    6.12    0.00    0.75    0.38    0.89    0.00   94.90    0.40    0.40    1.21    0.00    0.00    0.01    0.08    0.00     0.00    0.00    0.00    0.00
   56    1.07    0.00    0.54    0.39    0.54    0.00   94.61    0.51    0.51    0.99    0.00    0.00    0.01    0.04    0.00     0.00    0.00    0.00    0.00
   57    0.21    0.00    0.42    0.39    0.16    0.00   93.89    0.74    0.77    0.86    0.00    0.00    0.01    0.01    0.00     0.00    0.00    0.00    0.00
   58    1.06    0.00    0.41    0.40    0.16    0.00   93.10    1.56    1.56    0.85    0.00    0.00    0.01    0.01    0.00     0.00    0.00    0.00    0.00
   59    9.83    0.01    1.18    0.40    2.72    0.00   95.95    0.70    0.80    1.62    0.00    0.00    0.01    0.23    0.00     0.00    0.00    0.00    0.00
    2   46.13    8.95   18.42    8.18   29.03    0.00   95.95   20.18   28.47   35.37    0.29    0.00    0.27    3.08    0.00     0.01    0.00    0.00    0.00
   60    9.15    0.00    0.63    0.41    0.98    0.00   95.17    0.22    0.46    1.07    0.00    0.00    0.01    0.09    0.00     0.00    0.00    0.00    0.00
   61    6.63    0.03    1.34    0.42    3.40    0.00   96.77    0.38    0.48    1.79    0.00    0.00    0.01    0.28    0.00     0.00    0.00    0.00    0.00
   62    5.26    0.19    2.06    0.43    5.81    0.00   97.79    0.94    0.94    2.56    0.00    0.00    0.01    0.36    0.00     0.00    0.00    0.00    0.00
   63    7.31    0.01    1.82    0.45    4.25    0.00   95.20    2.78    2.79    2.32    0.00    0.00    0.01    0.31    0.00     0.00    0.00    0.00    0.00
   64   11.45    0.06    2.09    0.47    4.57    0.00   97.68    0.63    0.63    2.62    0.00    0.00    0.01    0.36    0.00     0.00    0.00    0.00    0.00
   65   36.71    2.57    2.95    0.49    7.67    0.00   99.97    0.19    0.24    4.18    0.05    0.00    0.02    0.70    0.00     0.00    0.00    0.00    0.00
   66   21.67    4.03    5.59    0.52   13.42    0.00  103.26    0.54    0.68    7.57    0.07    0.00    0.02    0.80    0.00     0.00    0.00    0.00    0.00
   67    7.29    0.04    3.78    0.56    7.71    0.00  100.00    0.68    0.76    5.37    0.03    0.00    0.02    0.36    0.00     0.00    0.00    0.00    0.00
   68    2.68    0.00    2.24    0.60    2.53    0.00   97.06    0.79    1.00    3.59    0.02    0.00    0.02    0.11    0.00     0.00    0.00    0.00    0.00
   69    0.73    0.00    1.76    0.63    0.68    0.00   96.23    0.29    0.42    2.96    0.01    0.00    0.01    0.03    0.00     0.00    0.00    0.00    0.00
   70    0.08    0.00    1.55    0.67    0.19    0.00   95.30    0.78    1.21    2.66    0.01    0.00    0.01    0.01    0.00     0.00    0.00    0.00    0.00
   71    0.75    0.00    1.41    0.70    0.05    0.00   95.05    0.49    0.80    2.46    0.00    0.00    0.01    0.00    0.00     0.00    0.00    0.00    0.00
   72   10.89    0.00    1.43    0.72    0.52    0.00   96.30    0.26    0.62    2.43    0.00    0.00    0.01    0.03    0.00     0.00    0.00    0.00    0.00
   73    9.98    0.18    1.99    0.75    3.92    0.00  100.35    0.55    0.72    3.02    0.00    0.00    0.01    0.18    0.00     0.00    0.00    0.00    0.00
   74    2.92    0.10    2.37    0.77    4.78    0.00  101.31    0.66    0.77    3.39    0.01    0.00    0.01    0.15    0.00     0.00    0.00    0.00    0.00
   75    3.50    0.07    2.90    0.81    5.41    0.00  100.38    0.51    0.51    3.92    0.01    0.00    0.01    0.19    0.00     0.00    0.00    0.00    0.00
   76    2.72    0.00    2.10    0.84    2.80    0.00   98.19    0.68    0.68    3.10    0.00    0.00    0.01    0.08    0.00     0.00    0.00    0.00    0.00
   77    1.11    0.00    1.59    0.87    1.00    0.00   96.99    0.99    0.99    2.59    0.00    0.00    0.01    0.03    0.00     0.00    0.00    0.00    0.00
   78    1.48    0.00    1.42    0.89    0.48    0.00   96.19    1.55    1.55    2.41    0.00    0.00    0.01    0.02    0.00     0.00    0.00    0.00    0.00
   79    0.22    0.00    1.24    0.91    0.15    0.00   94.92    1.32    1.81    2.24    0.00    0.00    0.01    0.01    0.00     0.00    0.00    0.00    0.00
   80    0.00    0.00    1.14    0.93    0.04    0.00   93.73    1.14    1.96    2.14    0.00    0.00    0.01    0.00    0.00     0.00    0.00    0.00    0.00
   81    4.87    0.00    1.10    0.95    0.04    0.00   95.01    0.43    0.64    2.11    0.00    0.00    0.01    0.00    0.00     0.00    0.00    0.00    0.00
   82    0.15    0.00    0.98    0.96    0.01    0.00   93.99    1.09    1.65    1.99    0.00    0.00    0.01    0.00    0.00     0.00    0.00    0.00    0.00
   83    0.00    0.00    0.96    0.98    0.01    0.00   94.72    1.78    2.74    1.97    0.00    0.00    0.01    0.00    0.00     0.00    0.00    0.00    0.00
   84    0.00    0.00    0.85    0.98    0.00    0.00   93.81    1.31    1.99    1.87    0.00    0.00    0.01    0.00    0.00     0.00    0.00    0.00    0.00
   85    0.10    0.00    0.78    0.99    0.00    0.00   92.08    1.83    2.86    1.80    0.00    0.00    0.01    0.00    0.00     0.00    0.00    0.00    0.00
   86    0.91    0.00    0.72    1.00    0.00    0.00   92.70    0.29    0.40    1.74    0.00    0.00    0.00    0.00    0.00     0.00    0.00    0.00    0.00
   87    0.00    0.00    0.68    1.00    0.00    0.00   91.77    0.91    1.37    1.70    0.00    0.00    0.00    0.00    0.00     0.00    0.00    0.00    0.00
   88    0.00    0.00    0.62    1.00    0.00    0.00   90.30    1.47    3.00    1.64    0.00    0.00    0.00    0.00    0.00     0.00    0.00    0.00    0.00
   89    0.00    0.00    0.58    1.00    0.00    0.00   88.92    1.39    3.67    1.59    0.00    0.00    0.00    0.00    0.00     0.00    0.00    0.00    0.00
   90    0.00    0.00    0.53    1.00    0.00    0.00   88.24    0.68    2.16    1.54    0.00    0.00    0.00    0.00    0.00     0.00    0.00    0.00    0.00
    3  148.56    7.30   51.22   23.68   70.43    0.00   88.24   27.52   40.49   82.34    0.22    0.00    0.31    4.09    0.00     0.01    0.00    0.00    0.00
   91    7.43    0.01    0.79    1.00    0.00    0.00   93.14    1.86    1.87    1.80    0.00    0.00    0.00    0.00    0.00     0.00    0.00    0.00    0.00
   92    6.84    0.00    0.98    0.99    1.00    0.00   96.84    0.77    0.77    1.98    0.00    0.00    0.00    0.03    0.00     0.00    0.00    0.00    0.00
   93    6.67    0.01    1.20    0.99    2.64    0.00   97.63    1.01    1.01    2.20    0.00    0.00    0.00    0.08    0.00     0.00    0.00    0.00    0.00
   94    0.05    0.00    0.72    0.99    0.86    0.00   95.33    1.34    1.72    1.71    0.00    0.00    0.00    0.02    0.00     0.00    0.00    0.00    0.00
   95    2.25    0.00    0.66    0.99    0.37    0.00   94.13    2.82    2.95    1.66    0.00    0.00    0.00    0.01    0.00     0.00    0.00    0.00    0.00
   96   11.16    0.01    1.48    0.99    3.15    0.00   96.86    2.12    2.12    2.48    0.00    0.00    0.00    0.10    0.00     0.00    0.00    0.00    0.00
   97   15.20    0.09    2.31    0.99    6.14    0.00  100.08    0.55    0.55    3.34    0.00    0.00    0.00    0.18    0.00     0.00    0.00    0.00    0.00
   98   11.21    0.04    2.37    1.00    6.16    0.00  100.21    0.42    0.42    3.40    0.00    0.00    0.00    0.17    0.00     0.00    0.00    0.00    0.00
   99    3.81    0.00    1.67    1.01    3.25    0.00   98.64    0.47    0.47    2.71    0.00    0.00    0.00    0.08    0.00     0.00    0.00    0.00    0.00
  100    4.08    0.00    1.56    1.02    2.38    0.00   96.66    2.09    2.09    2.60    0.00    0.00    0.00    0.06    0.00     0.00    0.00    0.00    0.00
  101    2.24    0.00    1.18    1.03    0.89    0.00   96.49    1.18    1.18    2.22    0.00    0.00    0.00    0.02    0.00     0.00    0.00    0.00    0.00
  102    0.03    0.00    0.99    1.04    0.25    0.00   95.38    0.86    1.17    2.04    0.00    0.00    0.00    0.01    0.00     0.00    0.00    0.00    0.00
  103    0.00    0.00    0.89    1.04    0.07    0.00   93.77    1.53    2.46    1.94    0.00    0.00    0.00    0.00    0.00     0.00    0.00    0.00    0.00
  104    0.09    0.00    0.82    1.04    0.02    0.00   92.57    1.26    2.47    1.87    0.00    0.00    0.00    0.00    0.00     0.00    0.00    0.00    0.00
  105    1.22    0.00    0.76    1.05    0.00    0.00   91.93    1.84    2.31    1.81    0.00    0.00    0.00    0.00    0.00     0.00    0.00    0.00    0.00
  106    0.12    0.00    0.70    1.04    0.00    0.00   91.11    0.94    2.08    1.75    0.00    0.00    0.00    0.00    0.00     0.00    0.00    0.00    0.00
  107    0.03    0.00    0.65    1.04    0.00    0.00   90.15    0.99    2.48    1.69    0.00    0.00    0.00    0.00    0.00     0.00    0.00    0.00    0.00
  108    0.46    0.00    0.60    1.04    0.00    0.00   90.11    0.49    1.06    1.64    0.00    0.00    0.00    0.00    0.00     0.00    0.00    0.00    0.00
  109    0.08    0.00    0.55    1.03    0.00    0.00   89.78    0.41    1.03    1.59    0.00    0.00    0.00    0.00    0.00     0.00    0.00    0.00    0.00
  110   12.66    0.02    1.32    1.03    1.70    0.00   96.14    2.14    2.14    2.36    0.00    0.00    0.00    0.03    0.00     0.00    0.00    0.00    0.00
  111    4.00    0.00    0.95    1.03    1.28    0.00   96.41    1.59    1.59    1.99    0.00    0.00    0.00    0.02    0.00     0.00    0.00    0.00    0.00
  112    0.00    0.00    0.66    1.02    0.39    0.00   94.24    1.71    2.59    1.69    0.00    0.00    0.00    0.01    0.00     0.00    0.00    0.00    0.00
  113    0.33    0.00    0.57    1.02    0.10    0.00   91.76    2.68    4.75    1.59    0.00    0.00    0.00    0.00    0.00     0.00    0.00    0.00    0.00
  114    2.02    0.00    0.56    1.01    0.02    0.00   92.17    1.50    1.91    1.57    0.00    0.00    0.00    0.00    0.00     0.00    0.00    0.00    0.00
  115    6.60    0.00    0.83    1.00    0.48    0.00   95.87    1.47    1.47    1.84    0.00    0.00    0.00    0.01    0.00     0.00    0.00    0.00    0.00
  116    5.45    0.00    0.96    1.00    1.67    0.00   96.92    1.24    1.24    1.96    0.00    0.00    0.00    0.03    0.00     0.00    0.00    0.00    0.00
  117   10.67    0.01    1.65    0.99    4.26    0.00   97.12    2.53    2.53    2.65    0.00    0.00    0.00    0.08    0.00     0.00    0.00    0.00    0.00
  118    9.45    0.01    1.67    0.99    4.09    0.00   99.14    0.40    0.40    2.67    0.00    0.00    0.00    0.07    0.00     0.00    0.00    0.00    0.00
  119    1.69    0.00    1.10    1.00    1.78    0.00   97.77    0.55    0.55    2.10    0.00    0.00    0.00    0.03    0.00     0.00    0.00    0.00    0.00
  120    0.00    0.00    0.82    1.00    0.52    0.00   94.84    2.33    2.63    1.81    0.00    0.00    0.00    0.01    0.00     0.00    0.00    0.00    0.00
    4  125.84    0.22   31.98   30.40   43.48    0.00   94.84   41.06   52.00   62.66    0.00    0.00    0.08    1.05    0.00     0.00    0.00    0.00    0.00
  121    0.36    0.00    0.71    0.99    0.14    0.00   92.20    2.83    4.67    1.70    0.00    0.00    0.00    0.00    0.00     0.00    0.00    0.00    0.00
  122   18.40    1.09    2.12    0.99    4.62    0.00   97.75    2.16    2.16    3.41    0.01    0.00    0.00    0.08    0.00     0.00    0.00    0.00    0.00
  123    1.77    0.00    1.10    0.99    1.56    0.00   96.24    1.31    1.33    2.30    0.00    0.00    0.00    0.02    0.00     0.00    0.00    0.00    0.00
  124    0.82    0.00    0.86    0.99    0.41    0.00   94.81    1.73    1.85    2.00    0.00    0.00    0.00    0.01    0.00     0.00    0.00    0.00    0.00
  125    7.75    0.01    1.34    0.99    2.01    0.00   96.82    1.73    1.73    2.44    0.00    0.00    0.00    0.03    0.00     0.00    0.00    0.00    0.00
  126    3.26    0.00    1.09    0.99    1.29    0.00   96.96    1.07    1.07    2.16    0.00    0.00    0.00    0.02    0.00     0.00    0.00    0.00    0.00
  127    0.29    0.00    0.82    0.99    0.39    0.00   95.56    1.23    1.46    1.88    0.00    0.00    0.00    0.01    0.00     0.00    0.00    0.00    0.00
  128    0.00    0.00    0.72    0.99    0.11    0.00   92.76    2.68    4.20    1.76    0.00    0.00    0.00    0.00    0.00     0.00    0.00    0.00    0.00
  129    0.00    0.00    0.66    0.99    0.03    0.00   90.22    2.51    6.05    1.68    0.00    0.00    0.00    0.00    0.00     0.00    0.00    0.00    0.00
  130    0.56    0.00    0.61    0.98    0.01    0.00   88.84    1.93    4.79    1.61    0.00    0.00    0.00    0.00    0.00     0.00    0.00    0.00    0.00
  131    0.00    0.00    0.56    0.98    0.00    0.00   87.27    1.57    5.50    1.56    0.00    0.00    0.00    0.00    0.00     0.00    0.00    0.00    0.00
  132    0.00    0.00    0.52    0.97    0.00    0.00   85.74    1.52    6.37    1.50    0.00    0.00    0.00    0.00    0.00     0.00    0.00    0.00    0.00
  133    0.00    0.00    0.48    0.96    0.00    0.00   84.59    1.16    5.49    1.45    0.00    0.00    0.00    0.00    0.00     0.00    0.00    0.00    0.00
  134    0.00    0.00    0.44    0.95    0.00    0.00   83.26    1.32    6.96    1.41    0.00    0.00    0.00    0.00    0.00     0.00    0.00    0.00    0.00
  135    0.00    0.00    0.41    0.94    0.00    0.00   82.32    0.94    5.49    1.36    0.00    0.00    0.00    0.00    0.00     0.00    0.00    0.00    0.00
  136    0.00    0.00    0.38    0.93    0.00    0.00   81.61    0.71    4.40    1.32    0.00    0.00    0.00    0.00    0.00     0.00    0.00    0.00    0.00
  137    0.51    0.00    0.35    0.92    0.00    0.00   81.17    0.95    3.76    1.28    0.00    0.00    0.00    0.00    0.00     0.00    0.00    0.00    0.00
  138    0.00    0.00    0.33    0.91    0.00    0.00   80.51    0.66    3.73    1.24    0.00    0.00    0.00    0.00    0.00     0.00    0.00    0.00    0.00
  139    0.00    0.00    0.30    0.90    0.00    0.00   79.75    0.75    5.14    1.21    0.00    0.00    0.00    0.00    0.00     0.00    0.00    0.00    0.00
  140    0.12    0.00    0.28    0.89    0.00    0.00   79.24    0.63    3.91    1.17    0.00    0.00    0.00    0.00    0.00     0.00    0.00    0.00    0.00
  141    4.53    0.00    0.40    0.88    0.00    0.00   82.19    1.27    1.86    1.28    0.00    0.00    0.00    0.00    0.00     0.00    0.00    0.00    0.00
  142    0.05    0.00    0.28    0.86    0.00    0.00   81.46    0.78    2.56    1.14    0.00    0.00    0.00    0.00    0.00     0.00    0.00    0.00    0.00
  143    0.62    0.00    0.24    0.85    0.00    0.00   81.18    0.91    2.25    1.09    0.00    0.00    0.00    0.00    0.00     0.00    0.00    0.00    0.00
  144    6.26    0.01    0.46    0.84    0.00    0.00   85.53    1.34    1.64    1.30    0.00    0.00    0.00    0.00    0.00     0.00    0.00    0.00    0.00
  145    4.05    0.00    0.44    0.82    0.00    0.00   88.45    0.75    0.79    1.27    0.00    0.00    0.00    0.00    0.00     0.00    0.00    0.00    0.00
  146    7.44    0.01    0.75    0.81    0.02    0.00   92.14    2.53    2.56    1.56    0.00    0.00    0.00    0.00    0.00     0.00    0.00    0.00    0.00
  147    5.32    0.00    0.64    0.79    0.73    0.00   93.04    2.70    2.73    1.44    0.00    0.00    0.00    0.01    0.00     0.00    0.00    0.00    0.00
  148    1.28    0.00    0.36    0.78    0.24    0.00   91.20    2.80    3.48    1.15    0.00    0.00    0.00    0.00    0.00     0.00    0.00    0.00    0.00
  149   19.72    0.34    1.94    0.77    5.26    0.00   96.02    3.68    4.03    2.82    0.00    0.00    0.00    0.07    0.00     0.00    0.00    0.00    0.00
  150   13.17    0.24    2.00    0.77    5.45    0.00   97.49    2.00    2.01    2.89    0.01    0.00    0.00    0.07    0.03     0.00    0.00    0.00    0.00
  151    1.40    0.00    1.00    0.77    1.70    0.00   93.30    3.54    4.26    1.85    0.00    0.00    0.00    0.01    0.04     0.00    0.00    0.00    0.00
    5   97.66    1.71   22.61   28.20   23.99    0.00   93.30   51.70  108.25   52.24    0.02    0.00    0.03    0.34    0.07     0.00    0.00    0.00    0.00
  152    1.30    0.00    0.73    0.77    0.47    0.00   93.10    0.93    1.13    1.56    0.00    0.00    0.00    0.01    0.02     0.00    0.00    0.00    0.00
  153    6.73    0.01    1.02    0.77    1.09    0.00   94.45    3.00    3.02    1.83    0.00    0.00    0.00    0.01    0.04     0.00    0.00    0.00    0.00
  154    0.00    0.00    0.68    0.77    0.35    0.00   91.69    2.35    4.27    1.48    0.00    0.00    0.00    0.00    0.04     0.00    0.00    0.00    0.00
  155    0.00    0.00    0.58    0.76    0.09    0.00   89.86    1.72    4.18    1.37    0.00    0.00    0.00    0.00    0.04     0.00    0.00    0.00    0.00
  156    0.00    0.00    0.52    0.76    0.02    0.00   88.05    1.79    5.21    1.31    0.00    0.00    0.00    0.00    0.04     0.00    0.00    0.00    0.00
  157    0.59    0.00    0.48    0.76    0.00    0.00   86.22    2.42    6.56    1.25    0.00    0.00    0.00    0.00    0.06     0.00    0.00    0.00    0.00
  158    4.25    0.00    0.56    0.75    0.00    0.00   87.60    2.59    3.71    1.32    0.00    0.00    0.00    0.00    0.05     0.00    0.00    0.00    0.00
  159    0.00    0.00    0.44    0.75    0.00    0.00   86.19    1.41    3.90    1.19    0.00    0.00    0.00    0.00    0.05     0.00    0.00    0.00    0.00
  160    0.05    0.00    0.39    0.74    0.00    0.00   85.23    1.01    3.35    1.14    0.00    0.00    0.00    0.00    0.03     0.00    0.00    0.00    0.00
  161   16.78    0.09    1.39    0.73    1.47    0.00   96.11    1.43    1.43    2.17    0.00    0.00    0.00    0.01    0.02     0.00    0.00    0.00    0.00
  162    2.42    0.00    0.75    0.73    0.86    0.00   93.99    3.17    3.22    1.51    0.00    0.00    0.00    0.00    0.03     0.00    0.00    0.00    0.00
  163    2.71    0.00    0.57    0.72    0.26    0.00   94.74    1.51    1.51    1.31    0.00    0.00    0.00    0.00    0.01     0.00    0.00    0.00    0.00
  164    0.00    0.00    0.45    0.72    0.07    0.00   92.45    2.22    3.19    1.18    0.00    0.00    0.00    0.00    0.01     0.00    0.00    0.00    0.00
  165    0.00    0.00    0.40    0.71    0.01    0.00   90.74    1.70    3.36    1.12    0.00    0.00    0.00    0.00    0.01     0.00    0.00    0.00    0.00
  166    6.24    0.01    0.61    0.70    0.17    0.00   93.34    2.84    2.85    1.32    0.00    0.00    0.00    0.00    0.01     0.00    0.00    0.00    0.00
  167   10.16    0.01    1.17    0.70    2.61    0.00   96.34    1.92    1.92    1.88    0.00    0.00    0.00    0.02    0.01     0.00    0.00    0.00    0.00
  168    7.85    0.01    1.26    0.70    3.18    0.00   96.17    2.42    2.42    1.97    0.00    0.00    0.00    0.02    0.01     0.00    0.00    0.00    0.00
  169    5.61    0.01    1.07    0.70    2.23    0.00   97.29    0.79    0.79    1.77    0.00    0.00    0.00    0.01    0.00     0.00    0.00    0.00    0.00
  170    1.61    0.00    0.77    0.70    0.99    0.00   96.45    1.01    1.01    1.47    0.00    0.00    0.00    0.00    0.00     0.00    0.00    0.00    0.00
  171    0.00    0.00    0.60    0.69    0.29    0.00   92.75    3.37    4.02    1.30    0.00    0.00    0.00    0.00    0.00     0.00    0.00    0.00    0.00
  172   14.45    0.03    1.79    0.70    3.93    0.00   93.76    5.44    6.47    2.50    0.00    0.00    0.00    0.03    0.04     0.00    0.00    0.00    0.00
  173    0.48    0.00    0.91    0.70    1.26    0.00   90.44    2.32    4.30    1.62    0.00    0.00    0.00    0.01    0.05     0.00    0.00    0.00    0.00
  174    9.40    0.03    1.15    0.70    1.18    0.00   94.61    2.55    2.55    1.86    0.00    0.00    0.00    0.00    0.03     0.00    0.00    0.00    0.00
  175    1.97    0.00    0.77    0.70    0.37    0.00   94.35    1.73    1.74    1.49    0.00    0.00    0.00    0.00    0.02     0.00    0.00    0.00    0.00
  176    1.09    0.00    0.64    0.71    0.09    0.00   91.47    3.85    4.63    1.35    0.00    0.00    0.00    0.00    0.02     0.00    0.00    0.00    0.00
  177    0.00    0.00    0.57    0.70    0.01    0.00   89.19    2.27    4.70    1.28    0.00    0.00    0.00    0.00    0.07     0.00    0.00    0.00    0.00
  178    9.34    0.01    0.99    0.70    0.45    0.00   92.31    4.50    5.05    1.70    0.00    0.00    0.00    0.00    0.06     0.00    0.00    0.00    0.00
  179    0.52    0.00    0.61    0.70    0.14    0.00   90.60    2.07    3.55    1.32    0.00    0.00    0.00    0.00    0.05     0.00    0.00    0.00    0.00
  180    1.64    0.00    0.53    0.70    0.03    0.00   89.92    2.27    2.94    1.23    0.00    0.00    0.00    0.00    0.03     0.00    0.00    0.00    0.00
  181   11.82    0.01    1.20    0.70    1.73    0.00   96.44    1.24    1.24    1.91    0.00    0.00    0.00    0.01    0.01     0.00    0.00    0.00    0.00
    6  117.01    0.22   23.59   21.64   23.36    0.00   96.44   67.84   98.21   45.72    0.01    0.01    0.01    0.14    0.84     0.00    0.00    0.00    0.00
  182    0.20    0.00    0.66    0.70    0.57    0.00   93.57    2.39    2.82    1.36    0.00    0.00    0.00    0.00    0.00     0.00    0.00    0.00    0.00
  183    0.00    0.00    0.53    0.69    0.15    0.00   91.41    1.99    3.45    1.23    0.00    0.00    0.00    0.00    0.01     0.00    0.00    0.00    0.00
  184    2.84    0.00    0.53    0.69    0.03    0.00   91.87    2.23    2.35    1.22    0.00    0.00    0.00    0.00    0.00     0.00    0.00    0.00    0.00
  185    8.60    0.01    0.98    0.69    1.33    0.00   96.26    1.17    1.17    1.67    0.00    0.00    0.00    0.01    0.00     0.00    0.00    0.00    0.00
  186   11.20    0.02    1.65    0.69    4.39    0.00   98.28    0.93    0.94    2.35    0.00    0.00    0.00    0.02    0.01     0.00    0.00    0.00    0.00
  187    0.55    0.00    0.85    0.69    1.42    0.00   95.39    1.76    1.80    1.55    0.00    0.00    0.00    0.01    0.00     0.00    0.00    0.00    0.00
  188    7.18    0.01    1.23    0.69    2.35    0.00   96.08    2.10    2.10    1.93    0.00    0.00    0.00    0.01    0.00     0.00    0.00    0.00    0.00
  189   13.57    0.05    2.07    0.70    5.24    0.00   98.82    1.03    1.03    2.79    0.00    0.00    0.00    0.03    0.00     0.00    0.00    0.00    0.00
  190   28.19    2.12    4.09    0.72   11.51    0.00  102.87    0.47    0.47    5.39    0.02    0.00    0.00    0.06    0.00     0.00    0.00    0.00    0.00
  191    5.87    0.00    2.45    0.74    5.82    0.00   96.76    3.46    3.47    3.58    0.01    0.00    0.00    0.03    0.01     0.00    0.00    0.00    0.00
  192    4.41    0.00    1.72    0.76    2.02    0.00   96.14    2.19    2.19    2.75    0.00    0.00    0.00    0.01    0.03     0.00    0.00    0.00    0.00
  193   18.81    0.26    3.23    0.79    7.02    0.00  100.46    0.81    0.81    4.30    0.01    0.00    0.00    0.04    0.01     0.00    0.00    0.00    0.00
  194   16.03    0.15    3.56    0.82    8.26    0.00  100.94    0.99    0.99    4.62    0.01    0.00    0.00    0.04    0.00     0.00    0.00    0.00    0.00
  195    3.97    0.00    2.39    0.85    3.77    0.00   97.40    2.11    2.11    3.41    0.00    0.00    0.00    0.02    0.00     0.00    0.00    0.00    0.00
  196    8.34    0.01    2.51    0.88    3.53    0.00   97.33    2.24    2.24    3.52    0.00    0.00    0.00    0.02    0.00     0.00    0.00    0.00    0.00
  197    6.41    0.01    2.27    0.91    2.73    0.00   98.02    1.15    1.15    3.29    0.00    0.00    0.00    0.01    0.00     0.00    0.00    0.00    0.00
  198    4.44    0.00    2.10    0.94    2.13    0.00   96.44    2.45    2.45    3.13    0.00    0.00    0.00    0.01    0.00     0.00    0.00    0.00    0.00
  199    0.00    0.00    1.63    0.97    0.65    0.00   93.19    2.48    3.77    2.66    0.00    0.00    0.00    0.00    0.01     0.00    0.00    0.00    0.00
  200    0.00    0.00    1.44    0.99    0.17    0.00   91.00    2.00    3.99    2.48    0.00    0.00    0.00    0.00    0.02     0.00    0.00    0.00    0.00
  201    0.00    0.00    1.31    1.02    0.04    0.00   88.13    2.83    6.83    2.37    0.00    0.00    0.00    0.00    0.02     0.00    0.00    0.00    0.00
  202    1.91    0.00    1.23    1.03    0.00    0.00   86.15    3.86    7.23    2.30    0.00    0.00    0.00    0.00    0.04     0.00    0.00    0.00    0.00
  203    0.02    0.00    1.12    1.05    0.00    0.00   84.22    1.95    5.56    2.19    0.00    0.00    0.00    0.00    0.02     0.00    0.00    0.00    0.00
  204    5.98    0.01    1.21    1.06    0.00    0.00   86.59    3.20    4.31    2.29    0.00    0.00    0.00    0.00    0.02     0.00    0.00    0.00    0.00
  205    0.00    0.00    1.00    1.07    0.00    0.00   85.07    1.52    3.68    2.08    0.00    0.00    0.00    0.00    0.04     0.00    0.00    0.00    0.00
  206    0.00    0.00    0.91    1.08    0.00    0.00   83.86    1.21    3.37    2.00    0.00    0.00    0.00    0.00    0.05     0.00    0.00    0.00    0.00
  207    0.00    0.00    0.84    1.08    0.00    0.00   82.68    1.17    3.55    1.93    0.00    0.00    0.00    0.00    0.02     0.00    0.00    0.00    0.00
  208    0.05    0.00    0.77    1.08    0.00    0.00   81.54    1.19    3.70    1.87    0.00    0.00    0.00    0.00    0.01     0.00    0.00    0.00    0.00
  209    2.83    0.00    0.77    1.08    0.00    0.00   82.27    2.00    2.55    1.86    0.00    0.00    0.00    0.00    0.02     0.00    0.00    0.00    0.00
  210   14.27    0.02    1.45    1.08    0.02    0.00   93.74    0.93    0.93    2.55    0.00    0.00    0.00    0.00    0.01     0.00    0.00    0.00    0.00
  211    0.85    0.00    0.83    1.08    0.01    0.00   91.33    3.26    3.32    1.92    0.00    0.00    0.00    0.00    0.03     0.00    0.00    0.00    0.00
  212    0.88    0.00    0.67    1.08    0.00    0.00   90.21    2.00    2.78    1.76    0.00    0.00    0.00    0.00    0.02     0.00    0.00    0.00    0.00
    7  167.40    2.66   47.99   27.72   63.18    0.00   90.21   59.08   87.11   78.35    0.05    0.00    0.01    0.32    0.42     0.00    0.00    0.00    0.00
  213    7.45    0.01    0.99    1.07    0.63    0.00   91.88    4.01    4.21    2.07    0.00    0.00    0.00    0.00    0.02     0.00    0.00    0.00    0.00
  214    0.93    0.00    0.67    1.07    0.21    0.00   91.57    0.99    1.24    1.74    0.00    0.00    0.00    0.00    0.01     0.00    0.00    0.00    0.00
  215    0.97    0.00    0.58    1.06    0.06    0.00   90.73    1.74    2.10    1.64    0.00    0.00    0.00    0.00    0.01     0.00    0.00    0.00    0.00
  216    2.70    0.00    0.58    1.06    0.01    0.00   91.89    1.39    1.42    1.64    0.00    0.00    0.00    0.00    0.01     0.00    0.00    0.00    0.00
  217    0.79    0.00    0.49    1.05    0.00    0.00   90.76    1.92    2.12    1.54    0.00    0.00    0.00    0.00    0.00     0.00    0.00    0.00    0.00
  218    0.00    0.00    0.45    1.04    0.00    0.00   88.02    2.74    4.65    1.49    0.00    0.00    0.00    0.00    0.00     0.00    0.00    0.00    0.00
  219    0.00    0.00    0.41    1.03    0.00    0.00   85.65    2.37    5.69    1.45    0.00    0.00    0.00    0.00    0.02     0.00    0.00    0.00    0.00
  220    0.00    0.00    0.38    1.02    0.00    0.00   83.46    2.19    6.36    1.40    0.00    0.00    0.00    0.00    0.03     0.00    0.00    0.00    0.00
  221    0.00    0.00    0.36    1.01    0.00    0.00   81.67    1.79    5.73    1.36    0.00    0.00    0.00    0.00    0.04     0.00    0.00    0.00    0.00
  222    0.00    0.00    0.33    0.99    0.00    0.00   79.58    2.09    6.96    1.33    0.00    0.00    0.00    0.00    0.03     0.00    0.00    0.00    0.00
  223    0.00    0.00    0.31    0.98    0.00    0.00   77.49    2.09    7.67    1.29    0.00    0.00    0.00    0.00    0.03     0.00    0.00    0.00    0.00
  224    0.03    0.00    0.28    0.97    0.00    0.00   75.77    1.75    6.45    1.25    0.00    0.00    0.00    0.00    0.03     0.00    0.00    0.00    0.00
  225    0.00    0.00    0.26    0.96    0.00    0.00   74.72    1.06    4.61    1.22    0.00    0.00    0.00    0.00    0.03     0.00    0.00    0.00    0.00
  226    0.00    0.00    0.24    0.94    0.00    0.00   74.01    0.71    3.43    1.19    0.00    0.00    0.00    0.00    0.01     0.00    0.00    0.00    0.00
  227    0.20    0.00    0.23    0.93    0.00    0.00   73.13    1.08    3.91    1.15    0.00    0.00    0.00    0.00    0.02     0.00    0.00    0.00    0.00
  228    0.00    0.00    0.21    0.91    0.00    0.00   72.33    0.80    3.78    1.12    0.00    0.00    0.00    0.00    0.03     0.00    0.00    0.00    0.00
  229    0.00    0.00    0.20    0.90    0.00    0.00   71.19    1.14    4.87    1.09    0.00    0.00    0.00    0.00    0.03     0.00    0.00    0.00    0.00
  230    0.00    0.00    0.18    0.88    0.00    0.00   70.46    0.73    3.51    1.07    0.00    0.00    0.00    0.00    0.03     0.00    0.00    0.00    0.00
  231    0.00    0.00    0.17    0.87    0.00    0.00   69.61    0.85    3.98    1.04    0.00    0.00    0.00    0.00    0.02     0.00    0.00    0.00    0.00
  232    0.09    0.00    0.16    0.85    0.00    0.00   68.60    1.10    5.26    1.01    0.00    0.00    0.00    0.00    0.01     0.00    0.00    0.00    0.00
  233   25.36    0.18    1.69    0.84    0.62    0.00   88.48    0.97    0.97    2.59    0.00    0.00    0.00    0.00    0.00     0.00    0.00    0.00    0.00
  234    9.66    0.01    1.38    0.83    2.08    0.00   92.24    1.30    1.30    2.24    0.00    0.00    0.00    0.00    0.00     0.00    0.00    0.00    0.00
  235   26.54    1.46    3.23    0.83    8.39    0.00   98.19    2.31    2.31    4.42    0.01    0.00    0.00    0.02    0.00     0.00    0.00    0.00    0.00
  236   10.09    0.01    2.16    0.83    5.72    0.00   97.80    1.29    1.29    3.25    0.00    0.00    0.00    0.01    0.00     0.00    0.00    0.00    0.00
  237    5.44    0.00    1.61    0.84    3.35    0.00   95.96    2.04    2.04    2.63    0.00    0.00    0.00    0.00    0.00     0.00    0.00    0.00    0.00
  238   26.13    1.35    3.70    0.85    9.90    0.00  101.32    0.48    0.48    5.05    0.01    0.00    0.00    0.01    0.00     0.00    0.00    0.00    0.00
  239    9.47    0.01    2.77    0.87    6.75    0.00   98.60    1.56    1.56    4.00    0.01    0.00    0.00    0.01    0.00     0.00    0.00    0.00    0.00
  240   14.43    0.13    3.07    0.90    7.08    0.00   99.83    0.69    0.69    4.26    0.01    0.00    0.00    0.01    0.00     0.00    0.00    0.00    0.00
  241    7.56    0.09    2.53    0.92    4.92    0.00   98.37    1.11    1.11    3.70    0.00    0.00    0.00    0.00    0.00     0.00    0.00    0.00    0.00
  242    0.00    0.00    1.73    0.95    1.50    0.00   95.90    0.74    0.83    2.86    0.00    0.00    0.00    0.00    0.00     0.00    0.00    0.00    0.00
  243    0.08    0.00    1.48    0.97    0.40    0.00   93.80    1.71    2.15    2.59    0.00    0.00    0.00    0.00    0.01     0.00    0.00    0.00    0.00
    8  147.91    3.25   32.84   29.22   51.63    0.00   93.80   46.72  102.67   64.71    0.05    0.00    0.00    0.07    0.44     0.00    0.00    0.00    0.00
  244    0.00    0.00    1.34    0.98    0.10    0.00   92.06    1.63    2.58    2.43    0.00    0.00    0.00    0.00    0.00     0.00    0.00    0.00    0.00
  245    1.19    0.00    1.23    1.00    0.02    0.00   91.98    1.24    1.49    2.32    0.00    0.00    0.00    0.00    0.00     0.00    0.00    0.00    0.00
  246   11.19    0.01    1.90    1.01    2.29    0.00   97.03    1.21    1.21    2.99    0.00    0.00    0.00    0.00    0.01     0.00    0.00    0.00    0.00
  247    2.06    0.00    1.40    1.03    1.09    0.00   96.96    0.40    0.40    2.49    0.00    0.00    0.00    0.00    0.00     0.00    0.00    0.00    0.00
  248   19.94    0.46    3.37    1.04    7.86    0.00  100.75    0.49    0.49    4.59    0.01    0.00    0.00    0.01    0.00     0.00    0.00    0.00    0.00
  249    0.00    0.00    1.78    1.06    2.56    0.00   96.66    1.19    1.20    2.97    0.00    0.00    0.00    0.00    0.00     0.00    0.00    0.00    0.00
  250    0.95    0.00    1.40    1.08    0.70    0.00   94.82    1.98    2.02    2.57    0.00    0.00    0.00    0.00    0.00     0.00    0.00    0.00    0.00
  251    0.62    0.00    1.24    1.09    0.18    0.00   94.33    0.91    1.04    2.40    0.00    0.00    0.00    0.00    0.00     0.00    0.00    0.00    0.00
  252    3.40    0.00    1.26    1.10    0.28    0.00   95.40    1.68    1.68    2.41    0.00    0.00    0.00    0.00    0.00     0.00    0.00    0.00    0.00
  253    0.03    0.00    1.08    1.11    0.09    0.00   93.59    1.74    2.20    2.24    0.00    0.00    0.00    0.00    0.00     0.00    0.00    0.00    0.00
  254    1.29    0.00    0.99    1.12    0.02    0.00   93.84    1.00    1.07    2.14    0.00    0.00    0.00    0.00    0.00     0.00    0.00    0.00    0.00
  255   12.84    0.06    2.02    1.12    3.67    0.00   98.60    0.39    0.39    3.19    0.00    0.00    0.00    0.00    0.00     0.00    0.00    0.00    0.00
  256    4.02    0.00    1.64    1.13    2.65    0.00   97.22    1.33    1.33    2.80    0.00    0.00    0.00    0.00    0.00     0.00    0.00    0.00    0.00
  257   48.51    9.18    6.36    1.15   15.43    0.00  105.13    0.42    0.42    9.95    0.08    0.00    0.00    0.02    0.00     0.00    0.00    0.00    0.00
  258   50.05   12.01    8.06    1.19   19.32    0.00  107.02    0.55    0.55   14.05    0.13    0.00    0.00    0.02    0.00     0.00    0.00    0.00    0.00
  259   19.97    0.80    5.67    1.24   13.37    0.00  103.08    1.57    1.57   10.42    0.08    0.00    0.00    0.01    0.00     0.00    0.00    0.00    0.00
  260   23.97    1.31    5.78    1.30   12.33    0.00  103.55    0.79    0.79    9.96    0.07    0.00    0.00    0.01    0.00     0.00    0.00    0.00    0.00
  261    0.02    0.00    3.36    1.35    3.80    0.00   98.02    1.13    1.18    6.83    0.04    0.00    0.00    0.00    0.00     0.00    0.00    0.00    0.00
  262    0.09    0.00    2.71    1.40    1.04    0.00   96.28    0.62    0.77    5.71    0.02    0.00    0.00    0.00    0.00     0.00    0.00    0.00    0.00
  263    0.00    0.00    2.41    1.44    0.28    0.00   94.58    1.38    1.90    5.08    0.01    0.00    0.00    0.00    0.00     0.00    0.00    0.00    0.00
  264    0.00    0.00    2.20    1.48    0.08    0.00   93.40    1.10    1.79    4.63    0.01    0.00    0.00    0.00    0.00     0.00    0.00    0.00    0.00
  265    0.00    0.00    2.02    1.51    0.02    0.00   92.25    1.13    2.05    4.28    0.01    0.00    0.00    0.00    0.00     0.00    0.00    0.00    0.00
  266    0.00    0.00    1.86    1.54    0.01    0.00   91.33    0.91    1.83    4.00    0.00    0.00    0.00    0.00    0.00     0.00    0.00    0.00    0.00
  267    0.00    0.00    1.72    1.56    0.00    0.00   90.33    1.01    2.15    3.76    0.00    0.00    0.00    0.00    0.00     0.00    0.00    0.00    0.00
  268    0.00    0.00    1.59    1.58    0.00    0.00   89.50    0.82    1.81    3.56    0.00    0.00    0.00    0.00    0.00     0.00    0.00    0.00    0.00
  269    2.06    0.00    1.49    1.60    0.00    0.00   90.08    1.45    1.68    3.40    0.00    0.00    0.00    0.00    0.00     0.00    0.00    0.00    0.00
  270    2.81    0.00    1.44    1.61    0.00    0.00   91.27    1.45    1.57    3.29    0.00    0.00    0.00    0.00    0.00     0.00    0.00    0.00    0.00
  271    0.43    0.00    1.28    1.62    0.00    0.00   90.98    0.73    0.89    3.10    0.00    0.00    0.00    0.00    0.00     0.00    0.00    0.00    0.00
  272    0.03    0.00    1.18    1.62    0.00    0.00   90.53    0.48    0.74    2.97    0.00    0.00    0.00    0.00    0.00     0.00    0.00    0.00    0.00
  273    2.93    0.00    1.16    1.63    0.00    0.00   92.46    0.77    0.78    2.92    0.00    0.00    0.00    0.00    0.00     0.00    0.00    0.00    0.00
    9  208.38   23.83   70.95   38.72   87.17    0.00   92.46   31.53   39.56  133.46    0.47    0.00    0.00    0.08    0.03     0.01    0.01    0.00    0.00
  274    7.50    0.01    1.50    1.63    0.60    0.00   97.47    0.39    0.39    3.23    0.00    0.00    0.00    0.00    0.00     0.00    0.00    0.00    0.00
  275    1.22    0.00    1.17    1.63    0.52    0.00   97.41    0.49    0.49    2.88    0.00    0.00    0.00    0.00    0.00     0.00    0.00    0.00    0.00
  276    1.12    0.00    1.05    1.62    0.40    0.00   97.48    0.17    0.17    2.74    0.00    0.00    0.00    0.00    0.00     0.00    0.00    0.00    0.00
  277    2.66    0.00    1.16    1.62    1.09    0.00   97.93    0.37    0.37    2.84    0.00    0.00    0.00    0.00    0.00     0.00    0.00    0.00    0.00
  278    0.10    0.00    0.92    1.61    0.35    0.00   97.29    0.43    0.43    2.59    0.00    0.00    0.00    0.00    0.00     0.00    0.00    0.00    0.00
  279    0.45    0.00    0.83    1.60    0.10    0.00   97.01    0.66    0.66    2.48    0.00    0.00    0.00    0.00    0.00     0.00    0.00    0.00    0.00
  280   20.61    0.48    2.94    1.60    7.61    0.00  101.68    0.23    0.23    4.72    0.00    0.00    0.00    0.01    0.00     0.00    0.00    0.00    0.00
  281    0.00    0.00    1.45    1.60    2.50    0.00   98.51    0.44    0.44    3.16    0.00    0.00    0.00    0.00    0.00     0.00    0.00    0.00    0.00
  282    0.25    0.00    1.10    1.60    0.68    0.00   97.35    0.67    0.67    2.78    0.00    0.00    0.00    0.00    0.00     0.00    0.00    0.00    0.00
  283   22.17    0.66    3.43    1.60    8.25    0.00  102.07    0.49    0.49    5.28    0.01    0.00    0.00    0.01    0.00     0.00    0.00    0.00    0.00
  284   10.30    0.01    2.85    1.61    6.58    0.00  101.03    0.49    0.49    4.63    0.00    0.00    0.00    0.00    0.00     0.00    0.00    0.00    0.00
  285   13.50    0.04    3.21    1.62    7.18    0.00  101.32    0.72    0.72    4.97    0.00    0.00    0.00    0.01    0.00     0.00    0.00    0.00    0.00
  286    5.53    0.00    2.44    1.64    4.16    0.00   99.62    0.83    0.83    4.18    0.00    0.00    0.00    0.00    0.00     0.00    0.00    0.00    0.00
  287   16.85    0.19    3.60    1.66    7.53    0.00  101.93    0.30    0.30    5.39    0.00    0.00    0.00    0.01    0.00     0.00    0.00    0.00    0.00
  288    0.00    0.00    2.10    1.68    2.41    0.00   98.52    0.82    0.82    3.87    0.00    0.00    0.00    0.00    0.00     0.00    0.00    0.00    0.00
  289    0.02    0.00    1.70    1.69    0.67    0.00   96.46    1.34    1.49    3.46    0.00    0.00    0.00    0.00    0.00     0.00    0.00    0.00    0.00
  290    7.09    0.01    2.06    1.71    2.01    0.00   97.43    2.23    2.23    3.82    0.00    0.00    0.00    0.00    0.00     0.00    0.00    0.00    0.00
  291    0.26    0.00    1.57    1.72    0.65    0.00   96.01    0.92    1.17    3.33    0.00    0.00    0.00    0.00    0.00     0.00    0.00    0.00    0.00
  292    0.71    0.00    1.38    1.73    0.18    0.00   95.71    0.80    0.90    3.14    0.00    0.00    0.00    0.00    0.00     0.00    0.00    0.00    0.00
  293    3.19    0.00    1.37    1.73    0.19    0.00   97.69    0.59    0.59    3.13    0.00    0.00    0.00    0.00    0.00     0.00    0.00    0.00    0.00
  294    0.27    0.00    1.19    1.73    0.06    0.00   96.31    1.70    1.71    2.95    0.00    0.00    0.00    0.00    0.00     0.00    0.00    0.00    0.00
  295    0.00    0.00    1.09    1.73    0.02    0.00   95.66    0.64    0.87    2.84    0.00    0.00    0.00    0.00    0.00     0.00    0.00    0.00    0.00
  296   30.83    2.27    4.16    1.74   10.09    0.00  102.61    1.47    1.47    6.51    0.02    0.00    0.00    0.01    0.00     0.00    0.00    0.00    0.00
  297   24.31    1.34    4.63    1.76   11.78    0.00  103.51    1.28    1.28    7.13    0.02    0.00    0.00    0.01    0.00     0.00    0.00    0.00    0.00
  298    6.09    0.00    2.93    1.78    5.58    0.00   99.95    1.56    1.56    5.22    0.01    0.00    0.00    0.00    0.00     0.00    0.00    0.00    0.00
  299    5.99    0.00    2.52    1.80    3.38    0.00   99.33    1.21    1.21    4.70    0.00    0.00    0.00    0.00    0.00     0.00    0.00    0.00    0.00
  300   40.52    6.12    6.34    1.83   13.99    0.00  105.71    0.50    0.50    9.91    0.05    0.00    0.00    0.01    0.00     0.00    0.00    0.00    0.00
  301   39.48    6.66    7.45    1.87   17.09    0.00  106.45    1.36    1.36   12.19    0.07    0.00    0.00    0.01    0.00     0.00    0.00    0.00    0.00
  302   31.82    3.81    7.24    1.93   15.70    0.00  106.15    0.88    0.88   12.19    0.10    0.00    0.00    0.01    0.00     0.00    0.00    0.00    0.00
  303   18.15    0.46    5.95    1.99   11.45    0.00  104.39    0.40    0.41   10.24    0.06    0.00    0.00    0.00    0.00     0.00    0.00    0.00    0.00
  304   34.49    4.44    7.60    2.06   15.11    0.00  106.46    0.54    0.54   12.50    0.09    0.00    0.00    0.01    0.00     0.00    0.00    0.00    0.00
   10  345.46   26.49   88.91   53.13  157.90    0.00  106.46   24.93   25.70  159.02    0.45    0.00    0.00    0.09    0.00     0.01    0.01    0.00    0.00
  305   20.54    0.81    6.62    2.14   12.31    0.00  105.07    0.34    0.34   11.06    0.06    0.00    0.00    0.00    0.00     0.00    0.00    0.00    0.00
  306   10.32    0.02    5.39    2.21    7.73    0.00  102.77    0.27    0.27    9.33    0.03    0.00    0.00    0.00    0.00     0.00    0.00    0.00    0.00
  307    0.17    0.00    3.89    2.28    2.33    0.00   99.03    1.47    1.47    7.50    0.02    0.00    0.00    0.00    0.00     0.00    0.00    0.00    0.00
  308    7.83    0.01    4.12    2.34    3.11    0.00  100.35    0.78    0.78    7.51    0.01    0.00    0.00    0.00    0.00     0.00    0.00    0.00    0.00
  309   10.36    0.01    3.75    2.40    2.49    0.00   99.99    0.89    0.94    6.98    0.01    0.00    0.00    0.00    0.00     0.00    0.00    0.00    0.00
  310    4.18    0.01    4.17    2.45    4.26    0.00  101.13    0.61    0.62    7.29    0.01    0.00    0.00    0.00    0.00     0.00    0.00    0.00    0.00
  311    0.00    0.00    3.19    2.50    1.48    0.00   99.32    0.36    0.36    6.23    0.00    0.00    0.00    0.00    0.00     0.00    0.00    0.00    0.00
  312    5.18    0.00    3.28    2.54    2.10    0.00  100.06    0.47    0.47    6.27    0.00    0.00    0.00    0.00    0.00     0.00    0.00    0.00    0.00
  313   17.64    0.24    4.71    2.58    7.41    0.00  103.00    0.08    0.08    7.73    0.01    0.00    0.00    0.00    0.00     0.00    0.00    0.00    0.00
  314    8.15    0.01    4.07    2.63    5.58    0.00  101.88    0.28    0.28    7.03    0.00    0.00    0.00    0.00    0.00     0.00    0.00    0.00    0.00
  315    1.89    0.00    3.15    2.66    2.34    0.00  100.16    0.49    0.49    6.08    0.00    0.00    0.00    0.00    0.00     0.00    0.00    0.00    0.00
  316    0.00    0.00    2.65    2.69    0.67    0.00   99.20    0.23    0.23    5.56    0.00    0.00    0.00    0.00    0.00     0.00    0.00    0.00    0.00
  317    8.25    0.01    2.78    2.72    1.73    0.00   99.95    0.21    0.21    5.69    0.00    0.00    0.00    0.00    0.00     0.00    0.00    0.00    0.00
  318    7.41    0.01    3.65    2.74    4.82    0.00  101.71    0.15    0.15    6.55    0.00    0.00    0.00    0.00    0.00     0.00    0.00    0.00    0.00
  319    1.73    0.00    2.72    2.76    2.06    0.00  100.16    0.04    0.04    5.61    0.00    0.00    0.00    0.00    0.00     0.00    0.00    0.00    0.00
  320    9.35    0.00    2.41    2.78    1.21    0.00   99.79    0.08    0.08    5.30    0.00    0.00    0.00    0.00    0.00     0.00    0.00    0.00    0.00
  321    2.33    0.00    2.09    2.79    0.36    0.00   99.35    0.36    0.36    4.97    0.00    0.00    0.00    0.00    0.00     0.00    0.00    0.00    0.00
  322    4.16    0.00    1.91    2.80    0.10    0.00   99.24    0.07    0.07    4.79    0.00    0.00    0.00    0.00    0.00     0.00    0.00    0.00    0.00
  323    1.22    0.00    1.77    2.80    0.03    0.00   99.20    0.10    0.10    4.63    0.00    0.00    0.00    0.00    0.00     0.00    0.00    0.00    0.00
  324    0.09    0.00    1.64    2.80    0.01    0.00   99.19    0.15    0.15    4.49    0.00    0.00    0.00    0.00    0.00     0.00    0.00    0.00    0.00
  325    0.00    0.00    1.52    2.79    0.00    0.00   99.11    0.14    0.18    4.35    0.00    0.00    0.00    0.00    0.00     0.00    0.00    0.00    0.00
  326    0.00    0.00    1.41    2.78    0.00    0.00   98.89    0.24    0.40    4.22    0.00    0.00    0.00    0.00    0.00     0.00    0.00    0.00    0.00
  327    0.78    0.00    1.30    2.77    0.00    0.00   98.89    0.20    0.21    4.10    0.00    0.00    0.00    0.00    0.00     0.00    0.00    0.00    0.00
  328    0.00    0.00    1.21    2.75    0.00    0.00   98.89    0.04    0.04    3.99    0.00    0.00    0.00    0.00    0.00     0.00    0.00    0.00    0.00
  329    0.00    0.00    1.12    2.73    0.00    0.00   98.87    0.04    0.05    3.87    0.00    0.00    0.00    0.00    0.00     0.00    0.00    0.00    0.00
  330   11.49    0.00    1.04    2.71    0.00    0.00   98.87    0.06    0.06    3.77    0.00    0.00    0.00    0.00    0.00     0.00    0.00    0.00    0.00
  331    1.82    0.01    0.97    2.68    0.00    0.00  100.31    0.00    0.00    3.67    0.00    0.00    0.00    0.00    0.00     0.00    0.00    0.00    0.00
  332    0.87    0.21    0.90    2.66    0.00    0.00  103.10    0.00    0.00    3.62    0.00    0.00    0.00    0.00    0.00     0.00    0.00    0.00    0.00
  333    0.00    0.00    0.83    2.63    0.00    0.00  103.10    0.27    0.27    3.51    0.00    0.00    0.00    0.00    0.00     0.00    0.00    0.00    0.00
  334    0.42    0.00    0.77    2.60    0.00    0.00  103.09    0.24    0.24    3.41    0.00    0.00    0.00    0.00    0.00     0.00    0.00    0.00    0.00
   11  136.17    1.35   79.04   78.70   62.13    0.00  103.09    8.66    8.95  169.11    0.16    0.00    0.00    0.02    0.00     0.01    0.01    0.00    0.00
  335    0.00    0.00    0.72    2.57    0.00    0.00  102.92    0.39    0.51    3.31    0.00    0.00    0.00    0.00    0.00     0.00    0.00    0.00    0.00
  336    0.00    0.00    0.67    2.53    0.00    0.00  102.77    0.18    0.29    3.22    0.00    0.00    0.00    0.00    0.00     0.00    0.00    0.00    0.00
  337    0.00    0.00    0.62    2.50    0.00    0.00  102.71    0.07    0.12    3.14    0.00    0.00    0.00    0.00    0.00     0.00    0.00    0.00    0.00
  338    6.26    0.00    0.57    2.47    0.00    0.00  102.71    0.20    0.20    3.05    0.00    0.00    0.00    0.00    0.00     0.00    0.00    0.00    0.00
  339   16.01    0.00    0.53    2.43    0.00    0.00  102.71    0.20    0.21    2.97    0.00    0.00    0.00    0.00    0.00     0.00    0.00    0.00    0.00
  340    7.44    0.00    0.49    2.39    0.00    0.00  102.70    0.33    0.34    2.90    0.00    0.00    0.00    0.00    0.00     0.00    0.00    0.00    0.00
  341    0.13    0.00    0.46    2.35    0.00    0.00  102.62    0.31    0.37    2.82    0.00    0.00    0.00    0.00    0.00     0.00    0.00    0.00    0.00
  342    0.00    0.00    0.43    2.32    0.00    0.00  102.57    0.06    0.10    2.75    0.00    0.00    0.00    0.00    0.00     0.00    0.00    0.00    0.00
  343    4.03    0.00    0.40    2.28    0.00    0.00  102.57    0.14    0.14    2.68    0.00    0.00    0.00    0.00    0.00     0.00    0.00    0.00    0.00
  344    0.05    0.00    0.37    2.24    0.00    0.00  102.55    0.16    0.17    2.61    0.00    0.00    0.00    0.00    0.00     0.00    0.00    0.00    0.00
  345    1.77    0.00    0.34    2.20    0.00    0.00  102.55    0.05    0.05    2.54    0.00    0.00    0.00    0.00    0.00     0.00    0.00    0.00    0.00
  346   16.24    0.16    0.32    2.16    0.00    0.00  105.69    0.09    0.09    2.52    0.00    0.00    0.00    0.00    0.00     0.00    0.00    0.00    0.00
  347   10.20   11.81    0.52    2.12    1.81    0.00  121.39    0.84    1.04    5.77    0.16    0.00    0.00    0.00    0.00     0.00    0.00    0.00    0.00
  348    7.15   11.57    1.47    2.09    6.53    0.00  126.84    0.14    0.14    8.70    0.24    0.00    0.00    0.00    0.00     0.00    0.00    0.00    0.00
  349   14.55   17.69    5.38    2.07    9.97    0.00  125.96    0.09    0.09   15.52    0.42    0.00    0.00    0.01    0.00     0.01    0.00    0.00    0.00
  350    0.00    2.03    3.23    2.05    9.44    0.00  117.57    0.50    0.53   11.41    0.23    0.00    0.00    0.00    0.00     0.00    0.00    0.00    0.00
  351    0.00    0.02    2.46    2.04    5.19    0.00  108.56    2.56    2.56    8.96    0.13    0.00    0.00    0.00    0.00     0.00    0.00    0.00    0.00
  352    3.48    0.00    1.90    2.03    4.28    0.00  104.25    1.04    1.04    7.29    0.08    0.00    0.00    0.00    0.00     0.00    0.00    0.00    0.00
  353   11.46    0.04    2.90    2.03    5.79    0.00  104.73    0.59    0.59    7.52    0.05    0.00    0.00    0.00    0.00     0.00    0.00    0.00    0.00
  354    5.32    0.00    1.63    2.03    2.54    0.00  103.15    0.32    0.33    5.67    0.03    0.00    0.00    0.00    0.00     0.00    0.00    0.00    0.00
  355    3.01    0.00    1.16    2.02    0.75    0.00  102.27    0.19    0.20    4.76    0.02    0.00    0.00    0.00    0.00     0.00    0.00    0.00    0.00
  356    4.12    0.00    1.00    2.01    0.21    0.00  102.03    0.07    0.07    4.27    0.01    0.00    0.00    0.00    0.00     0.00    0.00    0.00    0.00
  357    0.19    0.00    0.91    2.01    0.06    0.00  101.95    0.12    0.12    3.92    0.01    0.00    0.00    0.00    0.00     0.00    0.00    0.00    0.00
  358    0.76    0.00    0.83    1.99    0.02    0.00  101.89    0.37    0.40    3.64    0.01    0.00    0.00    0.00    0.00     0.00    0.00    0.00    0.00
  359    3.46    0.00    0.80    1.98    0.69    0.00  103.30    0.42    0.45    3.43    0.00    0.00    0.00    0.00    0.00     0.00    0.00    0.00    0.00
  360    3.45    0.91    1.22    1.97    1.96    0.00  109.71    0.94    1.07    3.96    0.01    0.00    0.00    0.00    0.00     0.00    0.00    0.00    0.00
  361    1.73    0.00    2.27    1.96    5.10    0.00  103.79    1.15    1.15    4.82    0.01    0.00    0.00    0.00    0.00     0.00    0.00    0.00    0.00
  362    2.55    0.00    2.01    1.95    2.81    0.00  100.19    1.38    1.39    4.42    0.00    0.00    0.00    0.00    0.01     0.00    0.00    0.00    0.00
  363    0.00    0.00    1.13    1.94    0.77    0.00   98.90    0.40    0.50    3.44    0.00    0.00    0.00    0.00    0.00     0.00    0.00    0.00    0.00
  364    0.00    0.00    0.89    1.93    0.22    0.00   98.23    0.42    0.56    3.12    0.00    0.00    0.00    0.00    0.00     0.00    0.00    0.00    0.00
  365    0.00    0.00    0.78    1.92    0.06    0.00   97.87    0.29    0.42    2.94    0.00    0.00    0.00    0.00    0.00     0.00    0.00    0.00    0.00
   12  123.38   44.22   38.39   66.56   58.20    0.00   97.87   14.02   15.22  148.06    1.41    0.00    0.00    0.02    0.01     0.03    0.02    0.00    0.00

 1998 1803.81  121.15  529.28  409.41  690.43    0.00   97.87  410.35  629.03 1058.58    3.14    0.01    1.25   12.54    1.82     0.08    0.06    0.01    0.00
1
    SWAT Dec 23 2016    VER 2016/Rev 664                                            

    General Input/Output section (file.cio):                                        
    1/17/2019 12:00:00 AM ARCGIS-SWAT interface AV                                  
                                                                                    
Annual Summary for Watershed in year    2 of simulation

UNIT                                    PERCO    TILE                           WATER     SED     NO3     NO3     NO3     NO3        N       P       P
TIME     PREC    SURQ    LATQ     GWQ    LATE       Q     SW       ET     PET   YIELD   YIELD    SURQ    LATQ    PERC    CROP  ORGANIC SOLUBLE ORGANIC TILENO3
         (mm)    (mm)    (mm)    (mm)    (mm)    (mm)    (mm)    (mm)    (mm)    (mm)   (t/ha)  ------------------(kg nutrient/ha)-------------------- (kg/ha)
    1    0.18    0.00    0.71    1.90    0.02    0.00   97.52    0.52    0.79    2.82    0.00    0.00    0.00    0.00    0.00     0.00    0.00    0.00    0.00
    2    0.18    0.00    0.65    1.89    0.01    0.00   96.94    0.75    1.10    2.71    0.00    0.00    0.00    0.00    0.00     0.00    0.00    0.00    0.00
    3   15.55    0.08    1.71    1.87    3.17    0.00  101.13    0.55    0.66    3.75    0.00    0.00    0.00    0.00    0.00     0.00    0.00    0.00    0.00
    4   12.12    0.25    2.64    1.86    7.28    0.00  103.35    0.38    0.38    4.70    0.00    0.00    0.00    0.00    0.00     0.00    0.00    0.00    0.00
    5    0.35    0.00    1.33    1.85    2.34    0.00  100.02    0.90    0.91    3.33    0.00    0.00    0.00    0.00    0.00     0.00    0.00    0.00    0.00
    6    0.00    0.00    1.01    1.84    0.65    0.00   97.82    1.44    1.84    2.97    0.00    0.00    0.00    0.00    0.00     0.00    0.00    0.00    0.00
    7   10.87    0.01    1.89    1.84    3.50    0.00  100.95    0.87    0.88    3.83    0.00    0.00    0.00    0.00    0.00     0.00    0.00    0.00    0.00
    8   13.55    0.02    2.17    1.83    3.98    0.00  101.48    0.55    0.63    4.09    0.00    0.00    0.00    0.00    0.00     0.00    0.00    0.00    0.00
    9    0.78    0.00    1.26    1.82    1.23    0.00  100.13    0.16    0.22    3.15    0.00    0.00    0.00    0.00    0.00     0.00    0.00    0.00    0.00
   10    0.27    0.00    1.02    1.81    0.33    0.00   99.55    0.20    0.26    2.89    0.00    0.00    0.00    0.00    0.00     0.00    0.00    0.00    0.00
   11    1.47    0.00    0.91    1.80    0.09    0.00   99.38    0.07    0.15    2.76    0.00    0.00    0.00    0.00    0.00     0.00    0.00    0.00    0.00
   12    7.08    0.00    0.83    1.79    0.02    0.00   99.18    0.17    0.39    2.67    0.00    0.00    0.00    0.00    0.00     0.00    0.00    0.00    0.00
   13   12.46    0.00    0.77    1.78    0.01    0.00   99.06    0.11    0.25    2.58    0.00    0.00    0.00    0.00    0.00     0.00    0.00    0.00    0.00
   14   11.46    0.00    0.73    1.76    0.16    0.00  100.24    0.15    0.32    2.52    0.00    0.00    0.00    0.00    0.00     0.00    0.00    0.00    0.00
   15    2.67    0.15    1.39    1.75    3.36    0.00  103.59    0.29    0.57    3.20    0.00    0.00    0.00    0.00    0.00     0.00    0.00    0.00    0.00
   16    0.35    0.71    2.02    1.74    5.74    0.00  106.19    1.40    1.81    4.05    0.02    0.00    0.00    0.00    0.00     0.00    0.00    0.00    0.00
   17    0.69    0.20    2.99    1.73    7.06    0.00  102.43    1.09    1.54    4.95    0.01    0.00    0.00    0.00    0.00     0.00    0.00    0.00    0.00
   18    0.00    0.00    1.86    1.73    3.69    0.00  100.61    0.11    0.16    3.74    0.00    0.00    0.00    0.00    0.00     0.00    0.00    0.00    0.00
   19    0.00    0.00    1.58    1.73    2.20    0.00   98.47    1.33    1.60    3.42    0.00    0.00    0.00    0.00    0.00     0.00    0.00    0.00    0.00
   20    0.00    0.00    1.17    1.73    0.69    0.00   96.90    0.79    1.32    2.99    0.00    0.00    0.00    0.00    0.00     0.00    0.00    0.00    0.00
   21    0.63    0.00    1.02    1.73    0.21    0.00   96.60    0.70    1.05    2.81    0.00    0.00    0.00    0.00    0.00     0.00    0.00    0.00    0.00
   22    0.85    0.00    0.93    1.72    0.07    0.00   97.32    0.03    0.03    2.70    0.00    0.00    0.00    0.00    0.00     0.00    0.00    0.00    0.00
   23    0.03    0.00    0.84    1.72    0.03    0.00   97.07    0.25    0.29    2.60    0.00    0.00    0.00    0.00    0.00     0.00    0.00    0.00    0.00
   24    0.35    0.00    0.78    1.71    0.01    0.00   97.13    0.27    0.29    2.52    0.00    0.00    0.00    0.00    0.00     0.00    0.00    0.00    0.00
   25   13.74    0.03    2.04    1.70    4.26    0.00  101.55    0.70    0.70    3.77    0.00    0.00    0.00    0.00    0.00     0.00    0.00    0.00    0.00
   26    9.23    0.01    2.10    1.70    4.82    0.00  101.45    0.96    0.97    3.83    0.00    0.00    0.00    0.00    0.00     0.00    0.00    0.00    0.00
   27   11.32    0.01    1.61    1.70    3.21    0.00  100.93    0.10    0.16    3.33    0.00    0.00    0.00    0.00    0.00     0.00    0.00    0.00    0.00
   28    7.92    0.00    1.13    1.69    1.05    0.00   99.80    0.08    0.18    2.84    0.00    0.00    0.00    0.00    0.00     0.00    0.00    0.00    0.00
   29    0.40    0.00    0.97    1.68    0.28    0.00   99.23    0.24    0.54    2.67    0.00    0.00    0.00    0.00    0.00     0.00    0.00    0.00    0.00
   30    0.12    0.00    0.88    1.68    0.08    0.00   98.90    0.25    0.58    2.57    0.00    0.00    0.00    0.00    0.00     0.00    0.00    0.00    0.00
   31    6.76    0.00    0.81    1.67    0.02    0.00   98.78    0.09    0.25    2.49    0.00    0.00    0.00    0.00    0.00     0.00    0.00    0.00    0.00
    1  141.42    1.47   41.75   54.77   59.53    0.00   98.78   15.47   20.85   99.22    0.04    0.00    0.02    0.04    0.00     0.00    0.00    0.00    0.00
   32    1.52    0.00    0.75    1.65    0.01    0.00   98.75    0.02    0.07    2.41    0.00    0.00    0.00    0.00    0.00     0.00    0.00    0.00    0.00
   33    0.38    0.39    0.69    1.64    0.01    0.00  106.13    0.07    0.14    2.45    0.00    0.00    0.00    0.00    0.00     0.00    0.00    0.00    0.00
   34    5.25    0.91    0.81    1.63    2.46    0.00  111.65    0.12    0.16    2.78    0.01    0.00    0.00    0.01    0.00     0.00    0.00    0.00    0.00
   35    9.87    1.09    3.30    1.63   11.08    0.00  108.80    0.41    0.47    5.46    0.02    0.00    0.00    0.01    0.00     0.00    0.00    0.00    0.00
   36   23.18    2.25    4.25    1.64   13.27    0.00  108.80    0.72    0.72    6.84    0.04    0.00    0.00    0.02    0.00     0.00    0.00    0.00    0.00
   37   13.83    0.00    1.98    1.65    4.06    0.00  103.84    0.21    0.43    4.27    0.02    0.00    0.00    0.01    0.00     0.00    0.00    0.00    0.00
   38   10.25    0.00    1.46    1.66    1.09    0.00  102.50    0.07    0.14    3.58    0.01    0.00    0.00    0.00    0.00     0.00    0.00    0.00    0.00
   39    7.48    0.00    1.27    1.66    0.29    0.00  102.04    0.13    0.29    3.27    0.00    0.00    0.00    0.00    0.00     0.00    0.00    0.00    0.00
   40    1.03    0.00    1.15    1.67    0.08    0.00  101.93    0.03    0.05    3.08    0.00    0.00    0.00    0.00    0.00     0.00    0.00    0.00    0.00
   41    3.75    0.00    1.06    1.67    0.02    0.00  101.84    0.06    0.13    2.93    0.00    0.00    0.00    0.00    0.00     0.00    0.00    0.00    0.00
   42    0.27    0.00    0.98    1.66    0.01    0.00  101.83    0.00    0.00    2.80    0.00    0.00    0.00    0.00    0.00     0.00    0.00    0.00    0.00
   43    0.00    0.00    0.91    1.66    0.00    0.00  101.79    0.04    0.07    2.69    0.00    0.00    0.00    0.00    0.00     0.00    0.00    0.00    0.00
   44    0.05    0.00    0.84    1.65    0.00    0.00  101.66    0.13    0.29    2.59    0.00    0.00    0.00    0.00    0.00     0.00    0.00    0.00    0.00
   45    0.00    0.00    0.78    1.64    0.00    0.00  101.50    0.15    0.31    2.50    0.00    0.00    0.00    0.00    0.00     0.00    0.00    0.00    0.00
   46    1.85    0.00    0.72    1.63    0.00    0.00  101.32    0.18    0.38    2.42    0.00    0.00    0.00    0.00    0.00     0.00    0.00    0.00    0.00
   47   26.88    0.00    0.67    1.62    0.00    0.00  101.99    0.14    0.28    2.35    0.00    0.00    0.00    0.00    0.00     0.00    0.00    0.00    0.00
   48    8.30    0.00    0.62    1.61    0.00    0.00  101.66    0.32    0.65    2.27    0.00    0.00    0.00    0.00    0.00     0.00    0.00    0.00    0.00
   49    3.61    0.00    0.58    1.59    0.00    0.00  101.53    0.13    0.26    2.21    0.00    0.00    0.00    0.00    0.00     0.00    0.00    0.00    0.00
   50   20.69    0.19    0.54    1.58    0.01    0.00  106.03    0.05    0.09    2.19    0.00    0.00    0.00    0.00    0.00     0.00    0.00    0.00    0.00
   51    0.12    2.97    0.50    1.56    0.16    0.00  117.07    0.17    0.35    2.93    0.03    0.00    0.00    0.00    0.00     0.00    0.00    0.00    0.00
   52   17.07    4.46    1.09    1.54    1.89    0.00  119.67    0.20    0.40    4.43    0.05    0.00    0.00    0.00    0.00     0.00    0.00    0.00    0.00
   53   11.17    0.01    0.61    1.53    1.01    0.00  119.00    0.21    0.42    3.40    0.02    0.00    0.00    0.00    0.00     0.00    0.00    0.00    0.00
   54   13.73    0.00    0.49    1.51    0.29    0.00  118.44    0.22    0.44    2.91    0.01    0.00    0.00    0.00    0.00     0.00    0.00    0.00    0.00
   55    7.98    0.00    0.44    1.49    0.08    0.00  118.22    0.12    0.25    2.61    0.01    0.00    0.00    0.00    0.00     0.00    0.00    0.00    0.00
   56    2.63    0.00    0.41    1.47    0.02    0.00  118.00    0.20    0.40    2.39    0.00    0.00    0.00    0.00    0.00     0.00    0.00    0.00    0.00
   57    0.76    3.25    1.00    1.45    2.33    0.00  122.36    0.24    0.48    3.72    0.03    0.00    0.00    0.00    0.00     0.00    0.00    0.00    0.00
   58    0.17    6.03    3.53    1.44   12.80    0.00  119.89    0.58    1.17    7.44    0.08    0.00    0.00    0.03    0.00     0.00    0.00    0.00    0.00
   59    1.41    4.01    4.16    1.44   11.94    0.00  117.60    1.04    1.72    8.36    0.09    0.00    0.00    0.03    0.00     0.00    0.00    0.00    0.00
    2  193.23   25.57   35.61   44.58   62.92    0.00  117.60    5.97   10.57   97.27    0.44    0.00    0.01    0.11    0.00     0.02    0.01    0.00    0.00
   60   22.81   14.31    5.55    1.45   12.87    0.00  117.41    0.40    0.51   12.35    0.23    0.00    0.00    0.03    0.00     0.01    0.00    0.00    0.00
   61   30.16   11.37    7.49    1.48   19.88    0.00  113.55    0.19    0.24   15.53    0.26    0.00    0.00    0.02    0.00     0.01    0.00    0.00    0.00
   62    8.92    2.95    6.91    1.53   14.61    0.00  108.13    0.74    0.95   13.79    0.17    0.00    0.00    0.02    0.00     0.01    0.00    0.00    0.00
   63    0.92    0.16    5.10    1.58    8.35    0.00  103.71    0.55    0.73   10.67    0.10    0.00    0.00    0.01    0.00     0.00    0.00    0.00    0.00
   64    1.42    0.01    3.63    1.63    4.75    0.00  102.13    0.38    0.43    8.30    0.05    0.00    0.00    0.00    0.00     0.00    0.00    0.00    0.00
   65    1.68    0.00    2.64    1.67    1.90    0.00  100.59    0.69    0.79    6.69    0.03    0.00    0.00    0.00    0.00     0.00    0.00    0.00    0.00
   66    0.00    0.00    2.17    1.72    0.57    0.00   99.34    0.60    0.84    5.77    0.02    0.00    0.00    0.00    0.00     0.00    0.00    0.00    0.00
   67    1.47    0.00    2.05    1.75    0.48    0.00   99.98    0.96    1.10    5.32    0.01    0.00    0.00    0.00    0.00     0.00    0.00    0.00    0.00
   68    5.21    0.00    2.07    1.78    1.53    0.00  101.65    0.17    0.20    5.09    0.01    0.00    0.00    0.00    0.00     0.00    0.00    0.00    0.00
   69    1.48    0.00    2.24    1.81    2.23    0.00  101.03    0.49    0.55    5.06    0.01    0.00    0.00    0.00    0.00     0.00    0.00    0.00    0.00
   70    0.00    0.00    1.75    1.84    0.72    0.00   99.66    0.54    0.70    4.42    0.00    0.00    0.00    0.00    0.00     0.00    0.00    0.00    0.00
   71    0.00    0.00    1.60    1.87    1.23    0.00   99.47    1.67    2.03    4.14    0.00    0.00    0.00    0.00    0.00     0.00    0.00    0.00    0.00
   72    0.05    0.00    1.75    1.89    0.61    0.00   97.28    1.16    1.58    4.19    0.00    0.00    0.00    0.00    0.00     0.00    0.00    0.00    0.00
   73    0.00    0.00    1.42    1.90    0.14    0.00   96.64    0.48    0.86    3.79    0.00    0.00    0.00    0.00    0.00     0.00    0.00    0.00    0.00
   74    0.00    0.00    1.27    1.91    0.04    0.00   95.85    0.74    1.41    3.58    0.00    0.00    0.00    0.00    0.00     0.00    0.00    0.00    0.00
   75    0.00    0.00    1.17    1.92    0.01    0.00   95.59    0.25    0.53    3.42    0.00    0.00    0.00    0.00    0.00     0.00    0.00    0.00    0.00
   76    0.00    0.00    1.08    1.93    0.01    0.00   94.92    0.66    1.44    3.28    0.00    0.00    0.00    0.00    0.00     0.00    0.00    0.00    0.00
   77    2.14    0.00    1.04    1.93    0.00    0.00   95.30    1.67    1.84    3.20    0.00    0.00    0.00    0.00    0.00     0.00    0.00    0.00    0.00
   78    7.37    0.01    1.36    1.93    0.96    0.00   99.46    0.93    0.93    3.48    0.00    0.00    0.00    0.00    0.00     0.00    0.00    0.00    0.00
   79    7.78    0.01    1.37    1.93    1.86    0.00  100.55    0.47    0.59    3.47    0.00    0.00    0.00    0.00    0.00     0.00    0.00    0.00    0.00
   80    8.84    0.01    2.30    1.93    4.89    0.00  102.25    0.38    0.44    4.38    0.00    0.00    0.00    0.00    0.00     0.00    0.00    0.00    0.00
   81    5.82    0.01    2.00    1.93    3.93    0.00  101.29    0.71    0.72    4.05    0.00    0.00    0.00    0.00    0.00     0.00    0.00    0.00    0.00
   82    9.48    0.01    2.17    1.93    4.17    0.00  101.85    0.39    0.49    4.21    0.00    0.00    0.00    0.01    0.00     0.00    0.00    0.00    0.00
   83    0.18    0.00    1.54    1.94    1.82    0.00  100.07    0.63    0.65    3.56    0.00    0.00    0.00    0.00    0.00     0.00    0.00    0.00    0.00
   84    0.09    0.00    1.21    1.94    0.53    0.00   96.74    2.80    3.36    3.22    0.00    0.00    0.00    0.00    0.00     0.00    0.00    0.00    0.00
   85    0.00    0.00    1.08    1.93    0.14    0.00   95.71    0.86    1.69    3.07    0.00    0.00    0.00    0.00    0.00     0.00    0.00    0.00    0.00
   86   14.33    0.02    2.27    1.93    3.86    0.00  101.16    0.94    0.95    4.27    0.00    0.00    0.00    0.00    0.00     0.00    0.00    0.00    0.00
   87    0.50    0.00    1.34    1.93    1.27    0.00   99.65    0.50    0.52    3.32    0.00    0.00    0.00    0.00    0.00     0.00    0.00    0.00    0.00
   88    0.00    0.00    1.09    1.93    0.35    0.00   98.20    1.04    1.23    3.05    0.00    0.00    0.00    0.00    0.00     0.00    0.00    0.00    0.00
   89    0.00    0.00    0.97    1.92    0.09    0.00   96.72    1.37    2.07    2.92    0.00    0.00    0.00    0.00    0.00     0.00    0.00    0.00    0.00
   90    0.00    0.00    0.89    1.91    0.03    0.00   95.55    1.14    2.13    2.83    0.00    0.00    0.00    0.00    0.00     0.00    0.00    0.00    0.00
    3  130.65   28.87   70.50   56.66   93.81    0.00   95.55   24.51   32.50  164.38    0.90    0.00    0.01    0.11    0.00     0.04    0.02    0.00    0.00
   91    0.00    0.00    0.82    1.90    0.01    0.00   93.73    1.81    3.98    2.74    0.00    0.00    0.00    0.00    0.00     0.00    0.00    0.00    0.00
   92    0.00    0.00    0.76    1.88    0.00    0.00   92.30    1.43    4.07    2.66    0.00    0.00    0.00    0.00    0.00     0.00    0.00    0.00    0.00
   93    0.02    0.00    0.70    1.87    0.00    0.00   91.15    1.16    3.83    2.59    0.00    0.00    0.00    0.00    0.00     0.00    0.00    0.00    0.00
   94    5.31    0.00    0.82    1.85    0.00    0.00   95.40    0.68    0.73    2.69    0.00    0.00    0.00    0.00    0.00     0.00    0.00    0.00    0.00
   95    5.59    0.01    1.00    1.83    0.39    0.00   97.31    2.30    2.31    2.85    0.00    0.00    0.00    0.00    0.00     0.00    0.00    0.00    0.00
   96    6.19    0.00    1.10    1.82    1.50    0.00   99.00    1.51    1.52    2.93    0.00    0.00    0.00    0.00    0.00     0.00    0.00    0.00    0.00
   97   10.98    0.02    1.76    1.80    4.21    0.00  101.25    0.82    0.82    3.58    0.00    0.00    0.00    0.00    0.00     0.00    0.00    0.00    0.00
   98    2.01    0.00    1.11    1.79    1.82    0.00   99.96    0.76    0.76    2.91    0.00    0.00    0.00    0.00    0.00     0.00    0.00    0.00    0.00
   99    0.00    0.00    0.83    1.77    0.52    0.00   96.84    2.51    3.06    2.61    0.00    0.00    0.00    0.00    0.00     0.00    0.00    0.00    0.00
  100    1.48    0.00    0.75    1.75    0.14    0.00   95.63    2.49    2.73    2.51    0.00    0.00    0.00    0.00    0.00     0.00    0.00    0.00    0.00
  101    2.55    0.00    0.73    1.74    0.03    0.00   95.96    2.03    2.12    2.48    0.00    0.00    0.00    0.00    0.00     0.00    0.00    0.00    0.00
  102    4.68    0.00    0.88    1.72    0.52    0.00   98.40    0.99    1.01    2.60    0.00    0.00    0.00    0.00    0.00     0.00    0.00    0.00    0.00
  103   16.15    0.10    2.30    1.70    5.84    0.00  102.34    0.71    0.72    4.04    0.00    0.00    0.00    0.01    0.00     0.00    0.00    0.00    0.00
  104   14.22    0.04    1.88    1.69    4.68    0.00  101.75    0.65    0.78    3.61    0.00    0.00    0.00    0.01    0.00     0.00    0.00    0.00    0.00
  105    0.24    0.00    1.63    1.68    2.82    0.00  100.53    0.51    0.76    3.34    0.00    0.00    0.00    0.00    0.00     0.00    0.00    0.00    0.00
  106    0.67    0.00    1.43    1.68    2.13    0.00   98.92    1.67    1.75    3.12    0.00    0.00    0.00    0.00    0.00     0.00    0.00    0.00    0.00
  107    3.85    0.00    1.27    1.67    1.29    0.00   99.47    1.16    1.16    2.95    0.00    0.00    0.00    0.00    0.00     0.00    0.00    0.00    0.00
  108    0.15    0.00    0.97    1.66    0.40    0.00   97.35    1.81    2.29    2.64    0.00    0.00    0.00    0.00    0.00     0.00    0.00    0.00    0.00
[...]

    HRU STATISTICS

                AVE ANNUAL VALUES

   HRU  SUB  SOIL       AREAkm2    CN     AWCmm   USLE_LS  IRRmm  AUTONkh AUTOPkh  MIXEF PRECmm SURQGENmm   GWQmm    ETmm   SEDth  NO3kgh  ORGNkgh BIOMth   YLDth  SURQmm
      1   1   B59H5401   .280E-02   66.21   88.00    0.50    0.00   72.38    0.00    0.20 1373.20  281.71    2.86  412.64    0.01    3.79    3.89    0.43    0.00  281.69
      2   1   B59H5401   .759E-02   66.21   88.00    2.75    0.00  342.67    0.00    0.20 1373.20  285.80   80.81  403.08    0.18    1.96    2.43    0.18    0.00  285.80
      3   1   B59H8301   .755E-01   66.21   88.00    2.82    0.00  342.65    0.00    0.20 1373.20  285.39  103.25  402.92    0.25    1.32    0.86    0.18    0.00  285.39
      4   1   B59H8301   .188E-01   66.21   88.00    0.54    0.00  341.75    0.00    0.20 1373.20  287.24    3.03  403.55    0.03    1.40    1.44    0.18    0.00  287.23
      5   1   B59H8301   .459E+00   69.00   88.00    3.27    0.00    0.00    0.00    0.20 1373.20  217.37  232.59  358.21    3.71    0.46    0.20    0.00    0.00  217.37
      6   1   B59H8301   .548E-01   69.00   88.00    0.65    0.00    0.00    0.00    0.20 1373.20  222.28    3.96  358.11    0.31    0.01    0.02    0.00    0.00  222.27
      7   1   B59H5401   .240E-02   66.00   88.00    3.88    0.00    0.00    0.00    0.20 1373.20  183.00  143.43  370.09    2.14    0.06    0.08    0.04    0.00  183.00
      8   1   B59H8301   .680E+01   66.00   88.00    6.12    0.00    0.00    0.00    0.20 1373.20  179.87  321.75  369.21    5.50    0.11    0.13    0.05    0.00  179.87
      9   1   B59H8301   .124E+00   66.00   88.00    0.58    0.00    0.00    0.00    0.20 1373.20  185.92    3.74  370.65    0.28    0.00    0.01    0.04    0.00  185.91
     10   1   B63H8301   .144E-01   45.00  119.00    3.21    0.00    0.00    0.00    0.20 1373.20    3.79 1048.65  321.31    0.50    0.05    0.01    0.11    0.00    3.79
     11   1   B59H8301   .145E+00   55.00   88.00    0.56    0.00    0.00    0.00    0.20 1373.20   92.17    3.99  372.34    0.13    0.00    0.01    0.05    0.00   92.17
     12   1   B59H8301   .473E+01   55.00   88.00    3.29    0.00    0.00    0.00    0.20 1373.20   86.53  262.71  371.38    1.48    0.06    0.06    0.05    0.00   86.53
     13   1   B63H8301   .140E+01   35.00  119.00    2.85    0.00    0.00    0.00    0.20 1373.20    2.75  966.92  352.71    0.32    0.13    0.01    0.17    0.00    2.75
     14   1   B63H8301   .220E-01   35.00  119.00    0.54    0.00    0.00    0.00    0.20 1373.20    2.90   93.30  406.27    0.00     NaN     NaN    8.77    0.00    2.90
     15   1   B63H8301   .252E-01   39.00  119.00    0.50    0.00    0.00    0.00    0.20 1373.20    9.84   90.05  359.83    0.06    0.03    0.00    0.00    0.00    9.84
     16   1   B63H8301   .107E+00   39.00  119.00    1.78    0.00    0.00    0.00    0.20 1373.20    9.54  729.68  364.46    0.58    1.21    0.08    0.04    0.00    9.54
     17   2   B59H5401   .959E-02   66.21   88.00    0.46    0.00  342.34    0.00    0.20 1490.60  332.72  357.76  404.21    0.02    1.92    2.18    0.19    0.00  332.70
     18   2   B59H5401   .120E-01   66.21   88.00    1.82    0.00   72.02    0.00    0.20 1490.60  327.68  361.32  412.58    0.06    3.04    1.97    0.43    0.00  327.68
     19   2   B59H8301   .203E+00   66.21   88.00    0.38    0.00   72.08    0.00    0.20 1490.60  327.95  355.73  412.62    0.02    2.18    0.44    0.43    0.00  327.92
     20   2   B59H8301   .428E+00   66.21   88.00    3.88    0.00  350.00    0.00    0.20 1490.60  339.85  508.16  349.21    7.14    0.13    0.41    0.00    0.00  339.85
     21   2   B59H5401   .400E-03   69.00   88.00    0.72    0.00    0.00    0.00    0.20 1490.60  264.51  415.37  357.94    0.26    0.01    0.02    0.00    0.00  264.49
     22   2   B59H5401   .216E-01   69.00   88.00    3.19    0.00    0.00    0.00    0.20 1490.60  257.64  544.15  357.94    3.50    0.45    0.16    0.00    0.00  257.64
     23   2   B59H5401   .839E-02   66.00   88.00    3.88    0.00    0.00    0.00    0.20 1490.60  219.05  509.97  368.48    3.26    0.00    0.09    0.00    0.00  219.05
     24   2   B59H5401   .360E-02   66.00   88.00    0.60    0.00    0.00    0.00    0.20 1490.60  224.81  429.18  369.06    0.26    0.00    0.01    0.00    0.00  224.81
     25   2   B59H8301   .262E+00   66.00   88.00    0.40    0.00    0.00    0.00    0.20 1490.60  224.84  428.62  369.06    0.28    0.00    0.01    0.00    0.00  224.83
     26   2   B59H8301   .101E+02   66.00   88.00    6.72    0.00    0.00    0.00    0.20 1490.60  214.07  620.47  367.53    8.06    0.00    0.14    0.00    0.00  214.07
     27   2   B59H5401   .116E-01   55.00   88.00    3.07    0.00    0.00    0.00    0.20 1490.60  105.30  626.22  373.57    0.80    0.43    0.04    0.35    0.00  105.30
     28   2   B59H8301   .784E+01   55.00   88.00    5.56    0.00    0.00    0.00    0.20 1490.60  103.50  673.79  373.98    1.86    0.58    0.09    0.42    0.00  103.50
     29   2   B59H8301   .265E+00   55.00   88.00    0.50    0.00    0.00    0.00    0.20 1490.60  112.22  482.68  373.00    0.10    0.01    0.01    0.21    0.00  112.22
     30   2   B63H8301   .559E-02   35.00  119.00    0.58    0.00    0.00    0.00    0.20 1490.60    3.57  592.22  369.71    0.02    0.00    0.00    0.00    0.00    3.57
     31   2   B63H8301   .161E+01   35.00  119.00    3.86    0.00    0.00    0.00    0.20 1490.60    0.15 1171.53  318.61    0.02    0.00    0.00    0.00    0.00    0.15
     32   2   B59H8301   .265E+01   60.00   88.00    6.75    0.00    0.00    0.00    0.20 1490.60  148.36  665.69  367.53    6.21    0.00    0.12    0.00    0.00  148.36
     33   2   B59H8301   .655E-01   60.00   88.00    0.52    0.00    0.00    0.00    0.20 1490.60  159.23  461.40  369.07    0.21    0.00    0.01    0.00    0.00  159.22
     34   2   B63H8301   .164E-01   36.00  119.00    6.72    0.00    0.00    0.00    0.20 1490.60    0.01 1169.74  321.93    0.00    1.37    0.00    1.46    0.00    0.01
     35   2   B63H8301   .316E-01   39.00  119.00    0.52    0.00    0.00    0.00    0.20 1490.60   11.90  588.21  360.64    0.09    0.03    0.00    0.00    0.00   11.90
     36   2   B63H8301   .408E+00   39.00  119.00    2.31    0.00    0.00    0.00    0.20 1490.60   11.38 1040.90  357.49    0.70    1.47    0.10    0.04    0.00   11.38
     37   3   B59H8301   .103E+00   66.21   88.00    5.32    0.00   77.21    0.00    0.20 1539.94  347.22  762.39  404.46    0.41    8.78    1.00    0.42    0.00  347.22
     38   3   B59H8301   .624E-01   66.21   88.00    0.40    0.00   78.00    0.00    0.20 1539.94  354.87  748.36  405.98    0.02    2.67    0.83    0.42    0.00  354.85
     39   3   B59H8301   .172E+00   66.00   88.00    9.23    0.00    0.00    0.00    0.20 1539.94  235.77  915.07  363.70   12.49    0.20    0.16    0.04    0.00  235.77
     40   3   B59H8301   .953E+00   55.00   88.00    5.44    0.00    0.00    0.00    0.20 1539.94  117.25 1027.78  366.97    2.23    0.53    0.09    0.27    0.00  117.25
     41   3   B59H8301   .560E-02   55.00   88.00    0.54    0.00    0.00    0.00    0.20 1539.94  127.14 1011.78  367.17    0.11    0.00    0.01    0.05    0.00  127.13
     42   3   B59H8301   .959E-02   60.00   88.00    0.38    0.00    0.00    0.00    0.20 1539.94  177.00  964.15  365.62    0.12    0.00    0.01    0.04    0.00  177.00
     43   3   B59H8301   .735E-01   60.00   88.00    3.94    0.00    0.00    0.00    0.20 1539.94  168.19  979.04  364.43    3.39    0.15    0.09    0.04    0.00  168.19
     44   4   B59H8301   .208E-01   66.21   88.00    0.48    0.00  350.00    0.45    0.20 1668.61  439.17  826.35  368.75    0.45    0.69    1.63    0.00    0.00  439.08
     45   4   B59H8301   .559E-02   66.21   88.00    1.10    0.00  350.00    0.45    0.20 1668.61  438.92  826.56  368.72    1.01    1.39    3.30    0.00    0.00  438.91
     46   4   B59H8301   .240E-01   69.00   88.00    0.52    0.00    0.00    0.00    0.20 1668.61  356.17  904.77  372.02    0.42    0.01    0.02    0.00    0.00  356.00
     47   4   B59H8301   .811E-01   69.00   88.00    2.42    0.00    0.00    0.00    0.20 1668.61  352.32  910.73  371.22    3.63    0.06    0.11    0.00    0.00  352.32
     48   4   B07H8301   .625E+00   55.00  442.28    3.13    0.00    0.00    0.00    0.20 1668.61  174.99 1024.24  423.10   27.49    0.24    0.40    1.27    0.00  174.99
     49   4   B59H8301   .893E+00   55.00   88.00    0.52    0.00    0.00    0.00    0.20 1668.61  163.82 1076.49  388.75    0.21    0.01    0.01    0.11    0.00  163.79
     50   4   B59H8301   .186E+02   55.00   88.00    4.25    0.00    0.00    0.00    0.20 1668.61  153.18 1097.30  384.48    3.43    0.00    0.09    0.00    0.00  153.15
     51   4   B63H8301   .675E-01   35.00  119.00    0.50    0.00    0.00    0.00    0.20 1668.61    6.55 1233.75  388.62    0.06    0.00    0.00    0.00    0.00    6.55
     52   4   B63H8301   .258E+01   35.00  119.00    3.15    0.00    0.00    0.00    0.20 1668.61    6.09 1275.89  364.68    0.85    0.00    0.02    0.00    0.00    6.09
     53   4   B59H8301   .795E-01   60.00   88.00    0.40    0.00    0.00    0.00    0.20 1668.61  224.56 1020.51  386.03    0.27    0.00    0.01    0.00    0.00  224.51
     54   4   B59H8301   .165E+01   60.00   88.00    8.67    0.00    0.00    0.00    0.20 1668.61  204.73 1047.75  385.39    8.27    0.73    0.18    0.13    0.00  204.73
     55   4   B07H8301   .117E+01   61.00  442.28    2.02    0.00    0.00    0.00    0.20 1668.61  266.77  939.30  410.39   45.79    0.06    0.52    0.01    0.00  266.76
     56   4   B07H8301   .138E+00   61.00  442.28    0.54    0.00    0.00    0.00    0.20 1668.61  274.19  934.81  405.40    8.36    0.00    0.10    0.00    0.00  274.08
     57   4   B59H8301   .138E+00   61.00   88.00    0.60    0.00    0.00    0.00    0.20 1668.61  237.60 1019.35  373.70    0.39    0.01    0.02    0.00    0.00  237.52
     58   4   B59H8301   .226E+00   61.00   88.00    1.47    0.00    0.00    0.00    0.20 1668.61  237.18 1019.71  373.66    1.20    0.02    0.06    0.00    0.00  237.17
     59   4   B63H8301   .149E+01   39.00  119.00    2.44    0.00    0.00    0.00    0.20 1668.61   20.81 1233.35  380.13    1.18    0.42    0.08    0.01    0.00   20.81
     60   4   B63H8301   .639E-01   39.00  119.00    0.56    0.00    0.00    0.00    0.20 1668.61   21.25 1232.27  374.85    0.20    0.00    0.01    0.00    0.00   21.24
     61   4   B59H8301   .360E-02   69.00   88.00    1.00    0.00    0.00    0.00    0.20 1668.61  356.20  907.41  369.28    0.96    0.00    0.04    0.00    0.00  356.19
     62   4   B59H8301   .356E-01   69.00   88.00    0.46    0.00    0.00    0.00    0.20 1668.61  356.15  905.60  371.22    0.47    0.01    0.03    0.00    0.00  356.14
     63   5   B59H8301   .679E-02   66.21   88.00    2.55    0.00   71.72    0.00    0.20 1594.42  392.51  744.79  424.69    0.14    3.91    2.93    0.29    0.00  392.51
     64   5   B59H8301   .120E-01   66.21   88.00    0.48    0.00   71.72    0.00    0.20 1594.42  392.96  744.46  424.74    0.03    3.30    2.06    0.29    0.00  392.92
     65   5   B59H8301   .454E+00   66.00   88.00    7.52    0.00    0.00    0.00    0.20 1594.42  266.91  903.89  395.72   13.45    0.22    0.17    0.03    0.00  266.91
     66   5   B59H8301   .320E-02   66.00   88.00    0.54    0.00    0.00    0.00    0.20 1594.42  280.06  882.62  397.57    0.29    0.00    0.01    0.03    0.00  280.05
     67   5   B59H8301   .937E+01   55.00   88.00    5.29    0.00    0.00    0.00    0.20 1594.42  137.56 1028.85  398.00    3.99    0.20    0.10    0.05    0.00  137.56
     68   5   B59H8301   .297E+00   55.00   88.00    0.54    0.00    0.00    0.00    0.20 1594.42  149.51 1009.12  399.62    0.24    0.00    0.01    0.04    0.00  149.51
     69   5   B63H8301   .345E+01   35.00  119.00    3.91    0.00    0.00    0.00    0.20 1594.42    4.32 1196.84  372.63    0.53    0.22    0.01    0.12    0.00    4.32
     70   5   B63H8301   .520E-02   35.00  119.00    0.56    0.00    0.00    0.00    0.20 1594.42    4.93 1150.44  402.27    0.03    0.04    0.00    0.07    0.00    4.93
     71   5   B59H8301   .196E-01   60.00   88.00    0.42    0.00    0.00    0.00    0.20 1594.42  203.74  957.59  397.72    0.16    0.01    0.01    0.08    0.00  203.73
     72   5   B59H8301   .694E+00   60.00   88.00    6.42    0.00    0.00    0.00    0.20 1594.42  191.00  978.45  395.87    8.25    0.22    0.14    0.03    0.00  191.00
     73   5   B63H8301   .895E-01   36.00  119.00    4.27    0.00    0.00    0.00    0.20 1594.42    2.98 1242.73  343.38    0.67    0.12    0.01    0.07    0.00    2.98
     74   5   B63H8301   .799E-03   36.00  119.00    0.35    0.00    0.00    0.00    0.20 1594.42    7.26 1149.11  400.65    0.02    0.03    0.00    0.04    0.00    7.26
     75   5   B63H8301   .799E-01   39.00  119.00    0.50    0.00    0.00    0.00    0.20 1594.42   17.59 1152.18  387.80    0.16    0.04    0.01    0.00    0.00   17.59
     76   5   B63H8301   .660E+00   39.00  119.00    2.09    0.00    0.00    0.00    0.20 1594.42   17.17 1174.31  379.07    1.31    0.28    0.03    0.00    0.00   17.17



                AVE MONTHLY BASIN VALUES
                   SNOW                      WATER               SED
  MON     RAIN     FALL   SURF Q    LAT Q    YIELD       ET    YIELD      PET
          (MM)     (MM)     (MM)     (MM)     (MM)     (MM)   (T/HA)     (MM)
    1   165.86    95.33    27.57    35.43    93.29     7.86     0.86    11.43
    2   128.53    83.52    27.09    40.68   105.26     9.88     0.93    14.81
    3   126.12    43.49    33.89    55.29   133.04    19.93     1.27    29.90
    4    82.87     8.18     0.71    30.41    81.42    35.73     0.10    64.40
    5   114.73     0.00     2.79    27.39    66.11    49.07     0.07    98.86
    6   110.77     0.00     1.75    26.78    56.54    59.32     0.04   105.71
    7   145.61     0.00     5.12    33.62    62.64    65.77     0.13   109.05
    8   125.61     0.00     4.17    29.23    56.29    53.37     0.11    94.57
    9   142.25     0.00    10.55    39.75    73.96    33.03     0.28    58.43
   10   120.03     1.77     4.99    38.48    75.69    23.39     0.12    30.61
   11   142.01    45.99     4.58    46.09    86.58    11.12     0.15    12.35
   12   145.48    80.96    14.72    37.78    92.12     8.81     0.47    10.02

     AVE ANNUAL BASIN STRESS DAYS
               WATER STRESS DAYS =     0.01
               TEMPERATURE STRESS DAYS =   111.10
               NITROGEN STRESS DAYS =   111.75
               PHOSPHORUS STRESS DAYS =     0.09
               AERATION STRESS DAYS =     0.00
1
    SWAT Dec 23 2016    VER 2016/Rev 664                                            

    General Input/Output section (file.cio):                                        
    1/17/2019 12:00:00 AM ARCGIS-SWAT interface AV                                  
                                                                                    
         AVE ANNUAL BASIN VALUES

              PRECIP =   1550.8 MM
              SNOW FALL =  359.85 MM
              SNOW MELT =   353.62 MM
              SUBLIMATION =     4.61 MM
              SURFACE RUNOFF Q =   138.11 MM
              LATERAL SOIL Q =  441.23 MM
              TILE Q =     0.00 MM
              GROUNDWATER (SHAL AQ) Q =   404.35 MM
              GROUNDWATER (DEEP AQ) Q =     0.00 MM
              REVAP (SHAL AQ => SOIL/PLANTS) =   12.80 MM
              DEEP AQ RECHARGE =   164.18 MM
              TOTAL AQ RECHARGE =  581.37 MM
              TOTAL WATER YLD =   983.69 MM
              PERCOLATION OUT OF SOIL =  587.33 MM
              ET =    377.4 MM
              PET =    640.2MM
              TRANSMISSION LOSSES =     0.00 MM
              SEPTIC INFLOW =       0.00 MM
              TOTAL SEDIMENT LOADING =      4.53 T/HA
              TILE FROM IMPOUNDED WATER =     0.000 (MM)
              EVAPORATION FROM IMPOUNDED WATER =     0.000 (MM)
              SEEPAGE INTO SOIL FROM IMPOUNDED WATER =    0.000 (MM)
              OVERFLOW FROM IMPOUNDED WATER =    0.000 (MM)
1
    SWAT Dec 23 2016    VER 2016/Rev 664                                            

    General Input/Output section (file.cio):                                        
    1/17/2019 12:00:00 AM ARCGIS-SWAT interface AV                                  
                                                                                    
              AVE ANNUAL BASIN VALUES


              NUTRIENTS
                   ORGANIC N =     0.094 (KG/HA)
                   ORGANIC P =     0.015 (KG/HA)
                   NO3 YIELD (SQ) =     0.013 (KG/HA)
                   NO3 YIELD (LAT) =    0.141 (KG/HA)
                   NO3 YIELD (TILE) =    0.000 (KG/HA)
                   SOLP YIELD (TILE) =    0.000(KG/HA)
                   SOLP YIELD (SURF INLET RISER) =    0.000 (KG/HA)
                   SOL P YIELD =    0.062 (KG/HA)
                   NO3 LEACHED =     1.422 (KG/HA)
                   P LEACHED =     0.603 (KG/HA)
                   N UPTAKE =     0.657 (KG/HA)
                   P UPTAKE =    0.182 (KG/HA)
                   NO3 YIELD (GWQ) =     0.011 (KG/HA)
                   ACTIVE TO SOLUTION P FLOW =        -3.198 (KG/HA)
                   ACTIVE TO STABLE P FLOW =        -1.348 (KG/HA)
                   N FERTILIZER APPLIED =     2.758 (KG/HA)
                   P FERTILIZER APPLIED =     0.000 (KG/HA)
                   N FIXATION =     0.000 (KG/HA)
                   DENITRIFICATION =       NaN (KG/HA)
                   HUMUS MIN ON ACTIVE ORG N =       NaN (KG/HA)
                   ACTIVE TO STABLE ORG N =    -0.026 (KG/HA)
                   HUMUS MIN ON ACTIVE ORG P =    0.025 (KG/HA)
                   MIN FROM FRESH ORG N =      NaN (KG/HA)
                   MIN FROM FRESH ORG P =    0.128 (KG/HA)
                   NO3 IN RAINFALL =     0.000 (KG/HA)
                   INITIAL NO3 IN SOIL =      72.602 (KG/HA)
                   FINAL NO3 IN SOIL =           NaN (KG/HA)
                   INITIAL ORG N IN SOIL =     164.672 (KG/HA)
                   FINAL ORG N IN SOIL =           NaN (KG/HA)
                   INITIAL MIN P IN SOIL =    8904.592 (KG/HA)
                   FINAL MIN P IN SOIL =      8817.820 (KG/HA)
                   INITIAL ORG P IN SOIL =      20.172 (KG/HA)
                   FINAL ORG P IN SOIL =      20.450 (KG/HA)
                   NO3 IN FERT =     2.758 (KG/HA)
                   AMMONIA IN FERT =     0.000 (KG/HA)
                   ORG N IN FERT =     0.000 (KG/HA)
                   MINERAL P IN FERT =     0.000 (KG/HA)
                   ORG P IN FERT =     0.000 (KG/HA)
                   N REMOVED IN YIELD =       NaN (KG/HA)
                   P REMOVED IN YIELD =     0.013 (KG/HA)
                   AMMONIA VOLATILIZATION =     0.000 (KG/HA)
                   AMMONIA NITRIFICATION =      0.000 (KG/HA)
                   NO3 EVAP-LAYER 2 TO 1 =      NaN

                   DIE-GRO P Q =           0.0 (No/M2)
                   DIE-GRO LP Q =           0.0 (No/M2)
                   DIE-GRO P SED =          0.0 (No/M2)
                   DIE-GRO LP SED =          0.0 (No/M2)
                   BACT P RUNOFF =          0.0 (No/M2)
                   BACT LP RUNOFF =          0.0 (No/M2)
                   BACT P SEDIMENT =          0.0 (No/M2)
                   BACT LP SEDIMENT =          0.0 (No/M2)
                   BACT P INCORP =          0.0 (No/M2)
                   BACT LP INCORP =          0.0 (No/M2)

                   NITRATE SEPTIC =         0.00 (kg/ha)
                   AMMONIA SEPTIC =         0.00 (kg/ha)
                   ORG N SEPTIC =         0.00 (kg/ha)
                   FRESH ORGN SEPTIC =         0.00 (kg/ha)
                   ORG P SEPTIC =         0.00 (kg/ha)
                   FRESH ORGP SEPTIC =         0.00 (kg/ha)
                   SOL P SEPTIC =         0.00 (kg/ha)
                   BOD SEPTIC =         0.00 (kg/ha)
