1
    SWAT Sep 7    VER 2018/Rev 670                                                                       0/ 0/   0      0: 0: 0

    General Input/Output section (file.cio):                                        
    1/17/2019 12:00:00 AM ARCGIS-SWAT interface AV                                  
                                                                                    
         Number of years in run:   10
         Area of watershed:       82.311 km2
1
    SWAT Sep 7    VER 2018/Rev 670                                                  

    General Input/Output section (file.cio):                                        
    1/17/2019 12:00:00 AM ARCGIS-SWAT interface AV                                  
                                                                                    
Annual Summary for Watershed in year    1 of simulation

UNIT                                    PERCO    TILE                           WATER     SED     NO3     NO3     NO3     NO3        N       P       P
TIME     PREC    SURQ    LATQ     GWQ    LATE       Q     SW       ET     PET   YIELD   YIELD    SURQ    LATQ    PERC    CROP  ORGANIC SOLUBLE ORGANIC TILENO3
         (mm)    (mm)    (mm)    (mm)    (mm)    (mm)    (mm)    (mm)    (mm)    (mm)   (t/ha)  ------------------(kg nutrient/ha)-------------------- (kg/ha)
1
    SWAT Sep 7    VER 2018/Rev 670                                                  

    General Input/Output section (file.cio):                                        
    1/17/2019 12:00:00 AM ARCGIS-SWAT interface AV                                  
                                                                                    
Annual Summary for Watershed in year    2 of simulation

UNIT                                    PERCO    TILE                           WATER     SED     NO3     NO3     NO3     NO3        N       P       P
TIME     PREC    SURQ    LATQ     GWQ    LATE       Q     SW       ET     PET   YIELD   YIELD    SURQ    LATQ    PERC    CROP  ORGANIC SOLUBLE ORGANIC TILENO3
         (mm)    (mm)    (mm)    (mm)    (mm)    (mm)    (mm)    (mm)    (mm)    (mm)   (t/ha)  ------------------(kg nutrient/ha)-------------------- (kg/ha)
1
    SWAT Sep 7    VER 2018/Rev 670                                                  

    General Input/Output section (file.cio):                                        
    1/17/2019 12:00:00 AM ARCGIS-SWAT interface AV                                  
                                                                                    
Annual Summary for Watershed in year    3 of simulation

UNIT                                    PERCO    TILE                           WATER     SED     NO3     NO3     NO3     NO3        N       P       P
TIME     PREC    SURQ    LATQ     GWQ    LATE       Q     SW       ET     PET   YIELD   YIELD    SURQ    LATQ    PERC    CROP  ORGANIC SOLUBLE ORGANIC TILENO3
         (mm)    (mm)    (mm)    (mm)    (mm)    (mm)    (mm)    (mm)    (mm)    (mm)   (t/ha)  ------------------(kg nutrient/ha)-------------------- (kg/ha)
    1    4.67    0.00    0.42    1.14    0.00    0.00  110.24    0.03    0.05    1.69    0.00    0.00    0.00    0.00    0.00     0.00    0.00    0.00    0.00
    2    0.00    0.00    0.44    1.13    0.08    0.00  110.89    0.06    0.12    1.68    0.00    0.00    0.00    0.00    0.00     0.00    0.00    0.00    0.00
    3    2.98    0.17    0.78    1.12    3.23    0.00  110.14    0.04    0.07    2.03    0.00    0.00    0.00    0.03    0.00     0.00    0.00    0.00    0.00
    4   17.59    5.33    3.08    1.12    9.78    0.00  112.92    0.04    0.07    5.64    0.00    0.00    0.01    0.07    0.00     0.00    0.00    0.00    0.00
    5    0.00    0.01    1.92    1.12    5.51    0.00  110.12    0.14    0.28    4.02    0.00    0.00    0.01    0.04    0.00     0.00    0.00    0.00    0.00
    6    2.31    0.00    1.16    1.12    2.18    0.00  108.49    0.03    0.06    2.98    0.00    0.00    0.00    0.01    0.00     0.00    0.00    0.00    0.00
    7    0.30    0.02    1.85    1.13    7.37    0.00  103.99    0.02    0.03    3.51    0.00    0.00    0.01    0.06    0.00     0.00    0.00    0.00    0.00
    8    3.10    0.00    1.57    1.14    3.96    0.00  101.42    0.09    0.19    3.12    0.00    0.00    0.00    0.03    0.00     0.00    0.00    0.00    0.00
    9    0.00    0.00    1.35    1.15    2.10    0.00  100.57    0.01    0.01    2.83    0.00    0.00    0.00    0.02    0.00     0.00    0.00    0.00    0.00
   10    0.00    0.00    1.05    1.15    0.61    0.00   99.85    0.00    0.00    2.46    0.00    0.00    0.00    0.00    0.00     0.00    0.00    0.00    0.00
   11    0.00    0.00    0.93    1.16    0.16    0.00   99.59    0.08    0.16    2.30    0.00    0.00    0.00    0.00    0.00     0.00    0.00    0.00    0.00
   12    0.00    0.00    0.86    1.16    0.04    0.00   99.47    0.07    0.14    2.19    0.00    0.00    0.00    0.00    0.00     0.00    0.00    0.00    0.00
   13    0.00    0.00    0.79    1.16    0.01    0.00   99.34    0.11    0.22    2.09    0.00    0.00    0.00    0.00    0.00     0.00    0.00    0.00    0.00
   14    0.00    0.00    0.73    1.16    0.00    0.00   99.34    0.00    0.00    2.00    0.00    0.00    0.00    0.00    0.00     0.00    0.00    0.00    0.00
   15    0.76    0.00    0.68    1.16    0.00    0.00   99.28    0.06    0.12    1.93    0.00    0.00    0.00    0.00    0.00     0.00    0.00    0.00    0.00
   16    5.55    0.00    0.63    1.16    0.00    0.00   99.26    0.02    0.04    1.86    0.00    0.00    0.00    0.00    0.00     0.00    0.00    0.00    0.00
   17    6.88    3.55    0.89    1.15    0.10    0.00  111.40    0.13    0.25    3.06    0.00    0.00    0.01    0.00    0.00     0.00    0.00    0.00    0.00
   18   10.49    0.17    0.92    1.15    2.55    0.00  111.90    0.26    0.52    2.82    0.00    0.00    0.00    0.03    0.00     0.00    0.00    0.00    0.00
   19    2.69    0.00    0.65    1.14    0.83    0.00  110.77    0.12    0.25    2.33    0.00    0.00    0.00    0.01    0.00     0.00    0.00    0.00    0.00
   20   21.95    0.00    0.58    1.13    0.23    0.00  110.45    0.05    0.10    2.11    0.00    0.00    0.00    0.00    0.00     0.00    0.00    0.00    0.00
   21    6.03    0.00    0.53    1.13    0.06    0.00  110.06    0.33    0.66    1.96    0.00    0.00    0.00    0.00    0.00     0.00    0.00    0.00    0.00
   22   16.25    0.00    0.49    1.12    0.02    0.00  110.02    0.02    0.04    1.84    0.00    0.00    0.00    0.00    0.00     0.00    0.00    0.00    0.00
   23    0.00    0.00    0.46    1.11    0.01    0.00  109.96    0.05    0.09    1.74    0.00    0.00    0.00    0.00    0.00     0.00    0.00    0.00    0.00
   24    0.02    0.00    0.42    1.10    0.00    0.00  109.95    0.01    0.02    1.66    0.00    0.00    0.00    0.00    0.00     0.00    0.00    0.00    0.00
   25    0.02    0.00    0.39    1.09    0.00    0.00  109.92    0.03    0.06    1.59    0.00    0.00    0.00    0.00    0.00     0.00    0.00    0.00    0.00
   26    3.77    0.00    0.37    1.07    0.00    0.00  109.88    0.03    0.07    1.53    0.00    0.00    0.00    0.00    0.00     0.00    0.00    0.00    0.00
   27    0.98    0.00    0.34    1.06    0.00    0.00  109.80    0.08    0.15    1.47    0.00    0.00    0.00    0.00    0.00     0.00    0.00    0.00    0.00
   28    2.74    0.00    0.31    1.05    0.00    0.00  109.61    0.19    0.39    1.42    0.00    0.00    0.00    0.00    0.00     0.00    0.00    0.00    0.00
   29   41.21    0.78    0.31    1.04    0.73    0.00  115.27    0.10    0.20    1.60    0.00    0.00    0.00    0.00    0.00     0.00    0.00    0.00    0.00
   30   13.38    8.74    0.91    1.03    4.71    0.00  123.14    0.45    0.91    4.39    0.01    0.00    0.01    0.04    0.00     0.00    0.00    0.00    0.00
   31   15.66   16.83    3.18    1.03    8.61    0.00  126.06    0.15    0.30   10.17    0.01    0.01    0.02    0.08    0.00     0.00    0.00    0.00    0.00
    1  179.35   35.59   28.99   34.68   52.89    0.00  126.06    2.79    5.57   82.02    0.03    0.04    0.11    0.41    0.00     0.01    0.01    0.00    0.00
   32    1.63    6.97    4.30    1.03    8.12    0.00  124.16    0.22    0.44   11.28    0.02    0.01    0.01    0.08    0.00     0.00    0.00    0.00    0.00
   33    5.63    5.48    3.47    1.05    8.09    0.00  123.06    0.11    0.22   10.18    0.01    0.01    0.01    0.08    0.00     0.00    0.00    0.00    0.00
   34    3.38    0.11    1.73    1.06    3.17    0.00  120.58    0.10    0.19    6.93    0.01    0.01    0.00    0.03    0.00     0.00    0.00    0.00    0.00
   35   10.38    1.18    2.33    1.08    8.84    0.00  116.99    0.05    0.11    6.84    0.01    0.01    0.01    0.11    0.00     0.00    0.00    0.00    0.00
   36    0.00    4.58    5.12    1.11   13.04    0.00  113.42    0.25    0.44    9.81    0.00    0.01    0.01    0.17    0.00     0.00    0.00    0.00    0.00
   37    0.52    1.90    4.58    1.15   13.21    0.00  107.28    1.26    1.88    8.86    0.00    0.01    0.01    0.19    0.00     0.00    0.00    0.00    0.00
   38    4.44    0.47    4.84    1.20    9.18    0.00  103.38    0.47    0.67    8.53    0.00    0.01    0.02    0.12    0.00     0.00    0.00    0.00    0.00
   39   12.46    2.40    5.69    1.26   11.02    0.00  104.19    0.69    0.97    9.45    0.00    0.01    0.02    0.14    0.00     0.00    0.00    0.00    0.00
   40    3.00    0.00    3.29    1.31    5.04    0.00  101.44    0.31    0.44    6.50    0.00    0.00    0.01    0.06    0.00     0.00    0.00    0.00    0.00
   41    8.02    0.13    4.08    1.38    6.71    0.00  102.00    0.68    0.94    6.99    0.00    0.00    0.02    0.08    0.00     0.00    0.00    0.00    0.00
   42    0.02    0.00    2.60    1.43    2.43    0.00   99.50    0.32    0.50    5.24    0.00    0.00    0.01    0.03    0.00     0.00    0.00    0.00    0.00
   43    6.97    0.00    2.15    1.48    0.92    0.00   99.20    0.23    0.47    4.60    0.00    0.00    0.01    0.01    0.00     0.00    0.00    0.00    0.00
   44   11.58    0.00    1.91    1.53    0.41    0.00   99.00    0.06    0.14    4.22    0.00    0.00    0.01    0.00    0.00     0.00    0.00    0.00    0.00
   45    8.81    0.00    1.72    1.57    0.13    0.00   98.72    0.14    0.30    3.93    0.00    0.00    0.01    0.00    0.00     0.00    0.00    0.00    0.00
   46    3.73    0.02    2.10    1.61    2.55    0.00  101.63    0.04    0.08    4.24    0.00    0.00    0.01    0.02    0.00     0.00    0.00    0.00    0.00
   47   10.21    0.00    1.64    1.64    0.84    0.00  100.49    0.13    0.27    3.71    0.00    0.00    0.01    0.01    0.00     0.00    0.00    0.00    0.00
   48    2.82    0.00    1.47    1.66    0.22    0.00  100.15    0.07    0.14    3.50    0.00    0.00    0.01    0.00    0.00     0.00    0.00    0.00    0.00
   49   13.57    0.00    1.36    1.69    0.06    0.00  100.04    0.05    0.09    3.34    0.00    0.00    0.01    0.00    0.00     0.00    0.00    0.00    0.00
   50    5.55    0.14    1.51    1.70    1.26    0.00  101.22    0.01    0.02    3.50    0.00    0.00    0.01    0.00    0.00     0.00    0.00    0.00    0.00
   51    2.51    0.00    1.25    1.72    0.43    0.00  100.63    0.09    0.17    3.21    0.00    0.00    0.00    0.00    0.00     0.00    0.00    0.00    0.00
   52    1.23    0.00    1.13    1.73    0.11    0.00  100.46    0.03    0.06    3.06    0.00    0.00    0.00    0.00    0.00     0.00    0.00    0.00    0.00
   53    1.92    0.00    1.04    1.74    0.03    0.00  100.40    0.02    0.05    2.94    0.00    0.00    0.00    0.00    0.00     0.00    0.00    0.00    0.00
   54    0.40    1.73    1.75    1.74    3.74    0.00  103.46    0.01    0.03    4.09    0.00    0.00    0.01    0.06    0.00     0.00    0.00    0.00    0.00
   55   26.92    0.10    1.29    1.75    2.04    0.00  105.29    0.05    0.11    3.50    0.00    0.00    0.01    0.03    0.00     0.00    0.00    0.00    0.00
   56    3.93    0.00    1.07    1.75    0.66    0.00  104.70    0.02    0.04    3.16    0.00    0.00    0.00    0.01    0.00     0.00    0.00    0.00    0.00
   57    0.00    0.04    1.09    1.75    0.79    0.00  106.33    0.03    0.05    3.11    0.00    0.00    0.00    0.01    0.00     0.00    0.00    0.00    0.00
   58    0.00    0.48    1.34    1.75    1.95    0.00  111.05    0.22    0.44    3.44    0.00    0.00    0.01    0.03    0.00     0.00    0.00    0.00    0.00
   59   10.20   12.80    4.45    1.76   10.99    0.00  115.83    1.23    1.71    9.62    0.01    0.01    0.03    0.12    0.00     0.00    0.00    0.00    0.00
   60    8.16    0.51    4.14    1.77   12.12    0.00  108.24    0.55    0.75    8.40    0.00    0.00    0.02    0.16    0.00     0.00    0.00    0.00    0.00
    2  167.98   39.04   74.43   43.39  128.11    0.00  108.24    7.44   11.72  166.17    0.07    0.12    0.28    1.56    0.00     0.02    0.03    0.00    0.00
   61    7.65    0.03    3.12    1.79    6.83    0.00  105.47    0.23    0.32    6.71    0.00    0.00    0.01    0.09    0.00     0.00    0.00    0.00    0.00
   62    6.98    0.00    1.89    1.81    2.00    0.00  102.85    0.26    0.54    5.06    0.00    0.00    0.01    0.02    0.00     0.00    0.00    0.00    0.00
   63   11.84    0.12    2.61    1.83    4.69    0.00  104.71    0.19    0.26    5.52    0.00    0.00    0.01    0.05    0.00     0.00    0.00    0.00    0.00
   64    8.39    0.00    1.73    1.85    1.48    0.00  102.72    0.22    0.45    4.42    0.00    0.00    0.01    0.02    0.00     0.00    0.00    0.00    0.00
   65    1.42    0.00    1.49    1.86    0.40    0.00  102.09    0.17    0.34    4.01    0.00    0.00    0.01    0.00    0.00     0.00    0.00    0.00    0.00
   66    0.05    0.04    1.38    1.87    0.44    0.00  104.10    0.36    0.72    3.79    0.00    0.00    0.01    0.01    0.00     0.00    0.00    0.00    0.00
   67   14.84    1.33    4.00    1.89    9.41    0.00  108.06    0.14    0.20    6.71    0.00    0.00    0.02    0.13    0.00     0.00    0.00    0.00    0.00
   68   57.21   24.86    9.82    1.92   22.06    0.00  112.44    0.16    0.24   18.57    0.01    0.01    0.04    0.36    0.00     0.00    0.00    0.00    0.00
   69   30.68   10.65    9.21    1.98   20.25    0.00  109.08    0.31    0.40   18.34    0.02    0.02    0.03    0.31    0.00     0.00    0.00    0.00    0.00
   70   16.96    0.23    5.28    2.04   10.34    0.00  104.01    0.69    0.92   12.48    0.01    0.01    0.02    0.13    0.00     0.00    0.00    0.00    0.00
   71   11.01    0.50    5.46    2.10    9.50    0.00  103.92    0.34    0.42   11.53    0.01    0.01    0.02    0.12    0.00     0.00    0.00    0.00    0.00
   72    2.38    0.00    3.61    2.16    3.82    0.00  101.17    0.22    0.27    8.80    0.00    0.01    0.01    0.04    0.00     0.00    0.00    0.00    0.00
   73    6.68    0.32    4.36    2.22    6.43    0.00  102.09    0.74    0.87    9.03    0.00    0.01    0.02    0.08    0.00     0.00    0.00    0.00    0.00
   74   31.84    4.83    7.08    2.28   14.17    0.00  106.40    0.30    0.32   12.49    0.01    0.01    0.03    0.19    0.00     0.00    0.00    0.00    0.00
   75   16.67    0.00    3.93    2.35    4.48    0.00  100.89    0.26    0.54    8.63    0.00    0.01    0.02    0.05    0.00     0.00    0.00    0.00    0.00
   76    9.93    0.21    4.48    2.40    3.94    0.00  100.67    0.73    1.08    8.80    0.00    0.00    0.02    0.05    0.00     0.00    0.00    0.00    0.00
   77   15.18    0.85    4.85    2.46    7.16    0.00  103.21    0.12    0.19    9.05    0.00    0.00    0.02    0.08    0.00     0.00    0.00    0.00    0.00
   78    7.75    0.15    4.50    2.52    6.41    0.00  102.44    0.16    0.17    8.42    0.00    0.00    0.02    0.07    0.00     0.00    0.00    0.00    0.00
   79    0.00    0.00    3.26    2.56    2.64    0.00   99.80    0.96    1.14    6.94    0.00    0.00    0.01    0.03    0.00     0.00    0.00    0.00    0.00
   80    0.00    0.13    3.64    2.61    3.90    0.00   99.78    0.83    1.33    7.19    0.00    0.00    0.02    0.05    0.00     0.00    0.00    0.00    0.00
   81    0.00    0.01    3.32    2.66    3.18    0.00   98.45    0.99    1.41    6.73    0.00    0.00    0.01    0.04    0.00     0.00    0.00    0.00    0.00
   82    0.00    0.00    2.72    2.69    1.02    0.00   95.92    1.35    2.39    6.04    0.00    0.00    0.01    0.01    0.00     0.00    0.00    0.00    0.00
   83    0.00    0.00    2.44    2.73    0.31    0.00   94.97    0.61    1.30    5.67    0.00    0.00    0.01    0.00    0.00     0.00    0.00    0.00    0.00
   84    6.44    0.01    2.56    2.75    0.74    0.00   99.08    0.60    0.63    5.74    0.00    0.00    0.01    0.01    0.00     0.00    0.00    0.00    0.00
   85    0.14    0.00    2.16    2.77    0.25    0.00   98.31    0.61    0.69    5.28    0.00    0.00    0.01    0.00    0.00     0.00    0.00    0.00    0.00
   86    3.54    0.00    2.23    2.79    1.03    0.00   99.39    0.47    0.49    5.31    0.00    0.00    0.01    0.01    0.00     0.00    0.00    0.00    0.00
   87    0.80    0.00    1.94    2.80    0.46    0.00   98.86    0.66    0.70    4.99    0.00    0.00    0.01    0.00    0.00     0.00    0.00    0.00    0.00
   88    3.71    0.00    1.76    2.80    0.19    0.00   99.02    0.04    0.10    4.77    0.00    0.00    0.01    0.00    0.00     0.00    0.00    0.00    0.00
   89    0.26    0.00    1.97    2.81    1.29    0.00   99.90    0.13    0.13    4.95    0.00    0.00    0.01    0.01    0.00     0.00    0.00    0.00    0.00
   90    1.93    0.00    1.82    2.81    1.14    0.00   99.77    0.15    0.16    4.77    0.00    0.00    0.01    0.01    0.00     0.00    0.00    0.00    0.00
   91    1.54    0.00    1.68    2.80    0.90    0.00   99.42    0.38    0.40    4.60    0.00    0.00    0.01    0.01    0.00     0.00    0.00    0.00    0.00
    3  275.81   44.26  110.28   72.91  150.85    0.00   99.42   13.36   19.11  235.35    0.07    0.12    0.44    1.99    0.00     0.02    0.04    0.00    0.00
   92    1.81    0.00    1.59    2.80    0.84    0.00   98.94    0.84    0.89    4.49    0.00    0.00    0.01    0.01    0.00     0.00    0.00    0.00    0.00
   93    0.00    0.00    1.36    2.79    0.26    0.00   97.86    0.77    1.00    4.23    0.00    0.00    0.01    0.00    0.00     0.00    0.00    0.00    0.00
   94    2.58    0.00    1.38    2.77    0.49    0.00   96.15    3.34    3.79    4.22    0.00    0.00    0.01    0.00    0.00     0.00    0.00    0.00    0.00
   95    2.62    0.00    1.26    2.76    0.16    0.00   95.92    2.49    2.69    4.08    0.00    0.00    0.01    0.00    0.00     0.00    0.00    0.00    0.00
   96    0.44    0.00    1.10    2.74    0.04    0.00   95.27    1.04    1.73    3.89    0.00    0.00    0.00    0.00    0.00     0.00    0.00    0.00    0.00
   97    0.00    0.00    1.01    2.72    0.01    0.00   94.11    1.15    2.35    3.77    0.00    0.00    0.00    0.00    0.00     0.00    0.00    0.00    0.00
   98    0.00    0.00    0.93    2.69    0.00    0.00   93.46    0.65    1.54    3.66    0.00    0.00    0.00    0.00    0.00     0.00    0.00    0.00    0.00
   99    0.00    0.00    0.86    2.67    0.00    0.00   93.06    0.40    1.02    3.56    0.00    0.00    0.00    0.00    0.00     0.00    0.00    0.00    0.00
  100    0.08    0.00    0.80    2.64    0.00    0.00   92.90    0.23    0.61    3.47    0.00    0.00    0.00    0.00    0.00     0.00    0.00    0.00    0.00
  101    0.00    0.00    0.74    2.61    0.00    0.00   92.08    0.83    2.25    3.37    0.00    0.00    0.00    0.00    0.00     0.00    0.00    0.00    0.00
  102    0.39    0.00    0.69    2.58    0.00    0.00   91.71    0.76    1.93    3.29    0.00    0.00    0.00    0.00    0.00     0.00    0.00    0.00    0.00
  103    3.50    0.00    0.74    2.54    0.00    0.00   94.25    0.73    0.85    3.30    0.00    0.00    0.00    0.00    0.00     0.00    0.00    0.00    0.00
  104    9.14    0.01    1.29    2.51    1.53    0.00   97.73    2.01    2.10    3.83    0.00    0.00    0.01    0.02    0.00     0.00    0.00    0.00    0.00
  105    6.70    0.01    1.31    2.48    2.25    0.00   99.66    0.65    0.68    3.81    0.00    0.00    0.01    0.03    0.00     0.00    0.00    0.00    0.00
  106    2.04    0.00    0.98    2.45    1.25    0.00   99.07    0.71    0.74    3.45    0.00    0.00    0.01    0.02    0.00     0.00    0.00    0.00    0.00
  107    0.00    0.00    0.74    2.42    0.37    0.00   96.34    2.29    2.85    3.17    0.00    0.00    0.00    0.00    0.00     0.00    0.00    0.00    0.00
  108    0.05    0.00    0.65    2.39    0.10    0.00   95.23    1.05    2.00    3.05    0.00    0.00    0.00    0.00    0.00     0.00    0.00    0.00    0.00
  109    2.06    0.00    0.64    2.35    0.03    0.00   95.57    1.59    1.73    3.00    0.00    0.00    0.00    0.00    0.00     0.00    0.00    0.00    0.00
  110    6.30    0.01    0.94    2.32    0.99    0.00   99.21    0.42    0.44    3.27    0.00    0.00    0.01    0.01    0.00     0.00    0.00    0.00    0.00
  111    0.05    0.00    0.63    2.29    0.33    0.00   96.14    2.73    3.04    2.93    0.00    0.00    0.00    0.00    0.00     0.00    0.00    0.00    0.00
  112    0.00    0.00    0.55    2.25    0.09    0.00   93.98    2.06    4.10    2.80    0.00    0.00    0.00    0.00    0.00     0.00    0.00    0.00    0.00
  113    0.00    0.00    0.50    2.22    0.02    0.00   92.17    1.79    4.79    2.72    0.00    0.00    0.00    0.00    0.00     0.00    0.00    0.00    0.00
  114    1.38    0.00    0.47    2.18    0.00    0.00   91.30    2.22    4.33    2.65    0.00    0.00    0.00    0.00    0.00     0.00    0.00    0.00    0.00
  115    1.14    0.00    0.44    2.14    0.00    0.00   91.96    0.45    0.75    2.59    0.00    0.00    0.00    0.00    0.00     0.00    0.00    0.00    0.00
  116    0.00    0.00    0.40    2.11    0.00    0.00   90.46    1.50    3.14    2.51    0.00    0.00    0.00    0.00    0.00     0.00    0.00    0.00    0.00
  117    0.05    0.00    0.36    2.07    0.00    0.00   89.32    1.19    3.62    2.44    0.00    0.00    0.00    0.00    0.00     0.00    0.00    0.00    0.00
  118    0.00    0.00    0.34    2.03    0.00    0.00   88.05    1.27    4.95    2.37    0.00    0.00    0.00    0.00    0.00     0.00    0.00    0.00    0.00
  119    0.00    0.00    0.31    2.00    0.00    0.00   87.18    0.87    3.95    2.31    0.00    0.00    0.00    0.00    0.00     0.00    0.00    0.00    0.00
  120   15.54    0.02    1.22    1.96    1.12    0.00   96.46    2.67    2.78    3.20    0.00    0.00    0.02    0.01    0.00     0.00    0.00    0.00    0.00
  121    2.44    0.00    0.64    1.92    0.68    0.00   96.16    1.66    1.94    2.57    0.00    0.00    0.01    0.00    0.00     0.00    0.00    0.00    0.00
    4   58.30    0.05   24.86   72.39   10.56    0.00   96.16   40.34   68.61   97.98    0.00    0.00    0.14    0.12    0.00     0.00    0.00    0.00    0.00
  122    3.88    0.00    0.60    1.89    0.56    0.00   96.21    2.69    2.81    2.50    0.00    0.00    0.01    0.01    0.00     0.00    0.00    0.00    0.00
  123    0.00    0.00    0.41    1.85    0.18    0.00   94.20    1.81    3.47    2.27    0.00    0.00    0.00    0.00    0.00     0.00    0.00    0.00    0.00
  124    0.00    0.00    0.35    1.82    0.05    0.00   92.31    1.83    4.63    2.17    0.00    0.00    0.00    0.00    0.00     0.00    0.00    0.00    0.00
  125    0.00    0.00    0.32    1.78    0.01    0.00   90.61    1.68    5.30    2.10    0.00    0.00    0.00    0.00    0.00     0.00    0.00    0.00    0.00
  126    0.00    0.00    0.29    1.75    0.00    0.00   89.19    1.42    5.28    2.04    0.00    0.00    0.00    0.00    0.00     0.00    0.00    0.00    0.00
  127    0.00    0.00    0.27    1.72    0.00    0.00   87.79    1.40    5.91    1.98    0.00    0.00    0.00    0.00    0.00     0.00    0.00    0.00    0.00
  128    0.71    0.00    0.25    1.68    0.00    0.00   86.32    2.18    7.67    1.93    0.00    0.00    0.00    0.00    0.00     0.00    0.00    0.00    0.00
  129    7.30    0.01    0.48    1.65    0.00    0.00   90.64    2.38    3.01    2.13    0.00    0.00    0.00    0.00    0.00     0.00    0.00    0.00    0.00
  130    0.98    0.00    0.29    1.61    0.00    0.00   89.66    1.94    3.41    1.90    0.00    0.00    0.00    0.00    0.00     0.00    0.00    0.00    0.00
  131    2.42    0.00    0.30    1.58    0.00    0.00   89.53    2.39    3.71    1.88    0.00    0.00    0.00    0.00    0.00     0.00    0.00    0.00    0.00
  132    0.00    0.00    0.22    1.54    0.00    0.00   88.10    1.44    4.06    1.76    0.00    0.00    0.00    0.00    0.00     0.00    0.00    0.00    0.00
  133    0.00    0.00    0.19    1.51    0.00    0.00   86.55    1.55    5.71    1.71    0.00    0.00    0.00    0.00    0.00     0.00    0.00    0.00    0.00
  134    0.00    0.00    0.18    1.48    0.00    0.00   85.10    1.45    6.38    1.66    0.00    0.00    0.00    0.00    0.00     0.00    0.00    0.00    0.00
  135    0.00    0.00    0.16    1.44    0.00    0.00   83.97    1.12    5.68    1.61    0.00    0.00    0.00    0.00    0.00     0.00    0.00    0.00    0.00
  136    0.00    0.00    0.15    1.41    0.00    0.00   82.95    1.02    5.67    1.56    0.00    0.00    0.00    0.00    0.00     0.00    0.00    0.00    0.00
  137    0.00    0.00    0.14    1.38    0.00    0.00   81.91    1.04    6.34    1.52    0.00    0.00    0.00    0.00    0.00     0.00    0.00    0.00    0.00
  138    3.64    0.00    0.23    1.35    0.00    0.00   83.45    1.89    3.36    1.58    0.00    0.00    0.00    0.00    0.00     0.00    0.00    0.00    0.00
  139    6.07    0.01    0.38    1.32    0.00    0.00   87.74    1.26    1.52    1.70    0.00    0.00    0.00    0.00    0.00     0.00    0.00    0.00    0.00
  140   28.03    1.20    2.58    1.29    5.76    0.00   99.94    1.48    1.52    4.21    0.00    0.00    0.04    0.07    0.00     0.00    0.00    0.00    0.00
  141   11.84    0.02    2.06    1.27    5.97    0.00  100.09    1.43    1.47    3.56    0.00    0.00    0.03    0.09    0.00     0.00    0.00    0.00    0.00
  142    3.78    0.00    1.24    1.26    2.76    0.00   97.75    2.09    2.15    2.65    0.00    0.00    0.01    0.04    0.00     0.00    0.00    0.00    0.00
  143    5.46    0.00    1.19    1.24    2.10    0.00   98.63    1.00    1.03    2.55    0.00    0.00    0.01    0.03    0.00     0.00    0.00    0.00    0.00
  144    0.00    0.00    0.79    1.23    0.65    0.00   96.11    1.76    2.36    2.10    0.00    0.00    0.01    0.01    0.00     0.00    0.00    0.00    0.00
  145   10.12    0.01    1.52    1.22    3.03    0.00   98.90    1.35    1.39    2.81    0.00    0.00    0.01    0.05    0.00     0.00    0.00    0.00    0.00
  146    6.14    0.00    1.43    1.20    2.87    0.00   99.14    1.01    1.04    2.69    0.00    0.00    0.01    0.05    0.00     0.00    0.00    0.00    0.00
  147    0.00    0.00    0.91    1.19    0.89    0.00   95.43    2.65    3.59    2.14    0.00    0.00    0.01    0.01    0.00     0.00    0.00    0.00    0.00
  148    3.00    0.00    0.84    1.18    0.24    0.00   95.74    2.23    2.31    2.05    0.00    0.00    0.01    0.00    0.00     0.00    0.00    0.00    0.00
  149    3.07    0.00    0.82    1.17    0.18    0.00   96.02    2.30    2.39    2.01    0.00    0.00    0.01    0.00    0.00     0.00    0.00    0.00    0.00
  150    9.61    0.01    1.46    1.16    2.74    0.00   99.19    0.96    0.99    2.64    0.00    0.00    0.01    0.05    0.00     0.00    0.00    0.00    0.00
  151    3.85    0.00    1.19    1.15    2.03    0.00   98.25    1.46    1.50    2.36    0.00    0.00    0.01    0.03    0.00     0.00    0.00    0.00    0.00
  152    0.64    0.00    0.83    1.14    0.61    0.00   96.24    1.92    2.19    1.98    0.00    0.00    0.01    0.01    0.00     0.00    0.00    0.00    0.00
    5  110.57    1.27   22.07   44.47   30.62    0.00   96.24   52.12  107.84   67.77    0.01    0.00    0.20    0.46    0.00     0.00    0.00    0.00    0.00
  153    0.00    0.00    0.71    1.13    0.16    0.00   94.47    1.58    2.88    1.85    0.00    0.00    0.00    0.00    0.00     0.00    0.00    0.00    0.00
  154    0.00    0.00    0.64    1.12    0.04    0.00   91.73    2.69    6.35    1.77    0.00    0.00    0.00    0.00    0.00     0.00    0.00    0.00    0.00
  155    8.71    0.01    1.01    1.11    0.50    0.00   95.04    3.75    4.40    2.13    0.00    0.00    0.01    0.01    0.00     0.00    0.00    0.00    0.00
  156    7.64    0.00    1.20    1.10    1.60    0.00   96.24    3.16    3.39    2.30    0.00    0.00    0.01    0.03    0.00     0.00    0.00    0.00    0.00
  157   21.31    0.49    2.82    1.10    7.43    0.00  101.31    1.39    1.42    4.06    0.00    0.00    0.03    0.15    0.00     0.00    0.00    0.00    0.00
  158    4.91    0.00    1.73    1.10    3.79    0.00   99.70    0.88    0.91    2.92    0.00    0.00    0.01    0.08    0.00     0.00    0.00    0.00    0.00
  159    6.86    0.01    1.80    1.10    3.47    0.00   99.76    0.83    0.85    2.97    0.00    0.00    0.01    0.07    0.00     0.00    0.00    0.00    0.00
  160    0.00    0.00    1.16    1.10    1.07    0.00   95.69    2.81    3.59    2.31    0.00    0.00    0.01    0.02    0.00     0.00    0.00    0.00    0.00
  161    0.00    0.00    0.97    1.10    0.29    0.00   91.63    3.71    8.27    2.11    0.00    0.00    0.01    0.01    0.00     0.00    0.00    0.00    0.00
  162    1.39    0.00    0.89    1.10    0.07    0.00   90.02    2.89    6.18    2.01    0.00    0.00    0.01    0.00    0.00     0.00    0.00    0.00    0.00
  163    2.52    0.00    0.87    1.09    0.02    0.00   90.62    1.77    2.31    1.98    0.00    0.00    0.00    0.00    0.00     0.00    0.00    0.00    0.00
  164    0.00    0.00    0.75    1.09    0.00    0.00   89.18    1.44    4.05    1.86    0.00    0.00    0.00    0.00    0.00     0.00    0.00    0.00    0.00
  165    0.00    0.00    0.69    1.08    0.00    0.00   87.35    1.83    6.94    1.78    0.00    0.00    0.00    0.00    0.00     0.00    0.00    0.00    0.00
  166    4.53    0.00    0.77    1.08    0.00    0.00   89.12    2.46    3.36    1.85    0.00    0.00    0.00    0.00    0.03     0.00    0.00    0.00    0.00
  167    4.77    0.00    0.80    1.07    0.00    0.00   91.85    1.65    1.82    1.88    0.00    0.00    0.00    0.00    0.09     0.00    0.00    0.00    0.00
  168    0.00    0.00    0.60    1.06    0.00    0.00   90.03    1.82    3.50    1.67    0.00    0.00    0.00    0.00    0.03     0.00    0.00    0.00    0.00
  169    0.00    0.00    0.53    1.05    0.00    0.00   88.44    1.59    4.10    1.59    0.00    0.00    0.00    0.00    0.03     0.00    0.00    0.00    0.00
  170    0.00    0.00    0.49    1.04    0.00    0.00   86.35    2.08    6.84    1.53    0.00    0.00    0.00    0.00    0.05     0.00    0.00    0.00    0.00
  171    0.00    0.00    0.45    1.03    0.00    0.00   84.38    1.97    7.75    1.48    0.00    0.00    0.00    0.00    0.09     0.00    0.00    0.00    0.00
  172    0.00    0.00    0.42    1.01    0.00    0.00   81.74    2.64   11.91    1.43    0.00    0.00    0.00    0.00    0.18     0.00    0.00    0.00    0.00
  173    0.00    0.00    0.39    1.00    0.00    0.00   79.45    2.28   12.45    1.39    0.00    0.00    0.00    0.00    0.24     0.00    0.00    0.00    0.00
  174    1.28    0.00    0.37    0.99    0.00    0.00   79.04    1.67    5.00    1.36    0.00    0.00    0.00    0.00    0.20     0.00    0.00    0.00    0.00
  175    2.94    0.00    0.40    0.98    0.00    0.00   79.86    1.97    3.75    1.38    0.00    0.00    0.00    0.00    0.29     0.00    0.00    0.00    0.00
  176   15.05    0.04    1.14    0.96    0.00    0.00   91.91    1.17    1.17    2.11    0.00    0.00    0.01    0.00    0.10     0.00    0.00    0.00    0.00
  177    7.33    0.00    1.02    0.95    0.35    0.00   96.04    1.47    1.47    1.98    0.00    0.00    0.01    0.01    0.13     0.00    0.00    0.00    0.00
  178    2.10    0.00    0.59    0.93    0.34    0.00   95.42    2.11    2.11    1.53    0.00    0.00    0.00    0.01    0.09     0.00    0.00    0.00    0.00
  179    0.00    0.00    0.41    0.92    0.10    0.00   93.67    1.62    2.52    1.34    0.00    0.00    0.00    0.00    0.07     0.00    0.00    0.00    0.00
  180    0.00    0.00    0.35    0.91    0.03    0.00   92.38    1.27    2.44    1.26    0.00    0.00    0.00    0.00    0.02     0.00    0.00    0.00    0.00
  181    0.10    0.00    0.32    0.89    0.01    0.00   91.59    0.88    1.80    1.21    0.00    0.00    0.00    0.00    0.04     0.00    0.00    0.00    0.00
  182    0.00    0.00    0.29    0.88    0.00    0.00   90.25    1.34    3.28    1.17    0.00    0.00    0.00    0.00    0.02     0.00    0.00    0.00    0.00
    6   91.43    0.57   24.58   31.05   19.27    0.00   90.25   58.73  126.84   56.24    0.00    0.00    0.16    0.38    1.70     0.00    0.00    0.00    0.00
  183    0.30    0.00    0.27    0.86    0.00    0.00   89.35    1.20    2.79    1.13    0.00    0.00    0.00    0.00    0.10     0.00    0.00    0.00    0.00
  184    2.70    0.00    0.29    0.85    0.00    0.00   89.85    2.12    2.51    1.14    0.00    0.00    0.00    0.00    0.13     0.00    0.00    0.00    0.00
  185    4.98    0.00    0.40    0.83    0.00    0.00   92.98    1.45    1.50    1.24    0.00    0.00    0.00    0.00    0.13     0.00    0.00    0.00    0.00
  186   59.73   13.56    6.03    0.83   15.31    0.00  104.17    2.92    2.92   10.49    0.03    0.01    0.03    0.25    0.16     0.00    0.00    0.00    0.00
  187   11.71    0.07    2.99    0.84    8.41    0.00  102.37    0.66    0.66    6.31    0.01    0.00    0.01    0.11    0.10     0.00    0.00    0.00    0.00
  188    3.05    0.00    1.80    0.85    3.43    0.00   99.51    1.12    1.12    4.41    0.00    0.00    0.01    0.04    0.12     0.00    0.00    0.00    0.00
  189    0.10    0.00    1.25    0.86    0.97    0.00   97.15    1.33    1.53    3.40    0.00    0.00    0.00    0.01    0.13     0.00    0.00    0.00    0.00
  190    0.73    0.00    1.06    0.86    0.26    0.00   96.56    1.02    1.18    2.90    0.00    0.00    0.00    0.00    0.08     0.00    0.00    0.00    0.00
  191   13.19    0.02    2.18    0.87    4.21    0.00   99.23    2.18    2.18    3.81    0.00    0.00    0.01    0.05    0.04     0.00    0.00    0.00    0.00
  192    3.98    0.00    1.51    0.88    2.07    0.00   98.48    1.67    1.67    2.97    0.00    0.00    0.00    0.02    0.10     0.00    0.00    0.00    0.00
  193   10.21    0.02    2.11    0.89    3.97    0.00   99.74    1.55    1.55    3.46    0.00    0.00    0.01    0.04    0.08     0.00    0.00    0.00    0.00
  194    0.59    0.00    1.32    0.90    1.27    0.00   97.44    1.38    1.56    2.58    0.00    0.00    0.00    0.01    0.07     0.00    0.00    0.00    0.00
  195    3.48    0.00    1.25    0.91    0.76    0.00   98.26    1.34    1.34    2.44    0.00    0.00    0.00    0.01    0.06     0.00    0.00    0.00    0.00
  196    7.82    0.01    1.75    0.92    2.80    0.00   99.82    0.96    0.96    2.90    0.00    0.00    0.00    0.02    0.07     0.00    0.00    0.00    0.00
  197    6.94    0.01    1.85    0.93    3.28    0.00   99.12    1.87    1.87    2.97    0.00    0.00    0.00    0.02    0.06     0.00    0.00    0.00    0.00
  198    0.05    0.00    1.24    0.94    1.02    0.00   95.86    2.09    2.87    2.32    0.00    0.00    0.00    0.01    0.08     0.00    0.00    0.00    0.00
  199    0.75    0.00    1.05    0.95    0.27    0.00   95.16    1.14    1.55    2.12    0.00    0.00    0.00    0.00    0.08     0.00    0.00    0.00    0.00
  200    0.92    0.00    0.96    0.96    0.07    0.00   95.13    0.87    1.04    2.00    0.00    0.00    0.00    0.00    0.06     0.00    0.00    0.00    0.00
  201    4.37    0.00    1.04    0.96    0.06    0.00   98.25    0.80    0.80    2.07    0.00    0.00    0.00    0.00    0.02     0.00    0.00    0.00    0.00
  202    0.70    0.00    0.86    0.96    0.02    0.00   96.32    2.60    2.60    1.88    0.00    0.00    0.00    0.00    0.03     0.00    0.00    0.00    0.00
  203    1.11    0.00    0.77    0.96    0.00    0.00   96.22    1.21    1.36    1.78    0.00    0.00    0.00    0.00    0.03     0.00    0.00    0.00    0.00
  204    2.55    0.00    0.77    0.96    0.01    0.00   97.27    1.33    1.33    1.77    0.00    0.00    0.00    0.00    0.03     0.00    0.00    0.00    0.00
  205    0.00    0.00    0.67    0.96    0.00    0.00   94.74    2.53    3.07    1.66    0.00    0.00    0.00    0.00    0.04     0.00    0.00    0.00    0.00
  206    3.25    0.00    0.68    0.95    0.00    0.00   95.50    2.34    2.34    1.67    0.00    0.00    0.00    0.00    0.05     0.00    0.00    0.00    0.00
  207   11.84    0.01    1.49    0.95    3.14    0.00  100.04    0.98    0.98    2.47    0.00    0.00    0.00    0.02    0.06     0.00    0.00    0.00    0.00
  208    0.05    0.00    0.86    0.95    1.04    0.00   97.34    1.52    1.62    1.83    0.00    0.00    0.00    0.00    0.09     0.00    0.00    0.00    0.00
  209    2.84    0.00    0.76    0.95    0.40    0.00   96.75    2.76    2.76    1.73    0.00    0.00    0.00    0.00    0.05     0.00    0.00    0.00    0.00
  210    9.40    0.01    1.39    0.95    2.68    0.00   99.76    1.11    1.11    2.36    0.00    0.00    0.00    0.01    0.08     0.00    0.00    0.00    0.00
  211    0.40    0.00    0.84    0.95    0.87    0.00   97.48    1.64    1.73    1.80    0.00    0.00    0.00    0.00    0.08     0.00    0.00    0.00    0.00
  212    3.72    0.00    0.85    0.95    0.74    0.00   97.55    2.29    2.29    1.81    0.00    0.00    0.00    0.00    0.04     0.00    0.00    0.00    0.00
  213    0.00    0.00    0.67    0.94    0.22    0.00   95.46    1.83    2.54    1.63    0.00    0.00    0.00    0.00    0.05     0.00    0.00    0.00    0.00
    7  171.45   13.72   40.99   28.35   57.29    0.00   95.46   49.78   55.31   83.02    0.05    0.02    0.12    0.66    2.28     0.01    0.01    0.00    0.00
  214    0.00    0.00    0.60    0.94    0.05    0.00   93.13    2.28    3.88    1.55    0.00    0.00    0.00    0.00    0.06     0.00    0.00    0.00    0.00
  215    5.32    0.00    0.71    0.94    0.18    0.00   95.78    2.05    2.07    1.65    0.00    0.00    0.00    0.00    0.10     0.00    0.00    0.00    0.00
  216    1.61    0.00    0.57    0.93    0.06    0.00   94.22    3.08    3.20    1.50    0.00    0.00    0.00    0.00    0.11     0.00    0.00    0.00    0.00
  217    0.32    0.00    0.50    0.92    0.01    0.00   92.34    2.19    3.40    1.43    0.00    0.00    0.00    0.00    0.08     0.00    0.00    0.00    0.00
  218    0.02    0.00    0.46    0.92    0.00    0.00   90.73    1.63    3.21    1.38    0.00    0.00    0.00    0.00    0.10     0.00    0.00    0.00    0.00
  219    2.04    0.00    0.43    0.91    0.00    0.00   90.56    2.19    2.65    1.34    0.00    0.00    0.00    0.00    0.08     0.00    0.00    0.00    0.00
  220    0.00    0.00    0.39    0.90    0.00    0.00   88.89    1.67    3.40    1.29    0.00    0.00    0.00    0.00    0.06     0.00    0.00    0.00    0.00
  221    2.52    0.00    0.37    0.89    0.00    0.00   89.61    1.76    1.95    1.26    0.00    0.00    0.00    0.00    0.06     0.00    0.00    0.00    0.00
  222    1.88    0.00    0.35    0.88    0.00    0.00   89.02    2.44    2.72    1.23    0.00    0.00    0.00    0.00    0.04     0.00    0.00    0.00    0.00
  223    5.77    0.00    0.48    0.87    0.00    0.00   92.50    1.89    1.90    1.35    0.00    0.00    0.00    0.00    0.04     0.00    0.00    0.00    0.00
  224    0.00    0.00    0.34    0.86    0.00    0.00   91.15    1.35    1.73    1.19    0.00    0.00    0.00    0.00    0.10     0.00    0.00    0.00    0.00
  225    0.00    0.00    0.29    0.85    0.00    0.00   89.05    2.11    3.30    1.14    0.00    0.00    0.00    0.00    0.06     0.00    0.00    0.00    0.00
  226    0.00    0.00    0.27    0.83    0.00    0.00   86.82    2.23    4.02    1.10    0.00    0.00    0.00    0.00    0.13     0.00    0.00    0.00    0.00
  227    0.00    0.00    0.25    0.82    0.00    0.00   84.30    2.52    5.12    1.07    0.00    0.00    0.00    0.00    0.17     0.00    0.00    0.00    0.00
  228   16.05    0.04    1.07    0.81    0.23    0.00   95.38    2.59    2.59    1.90    0.00    0.00    0.00    0.00    0.11     0.00    0.00    0.00    0.00
  229    0.33    0.00    0.44    0.78    0.06    0.00   92.69    2.94    3.66    1.23    0.00    0.00    0.00    0.00    0.26     0.00    0.00    0.00    0.00
  230    3.03    0.00    0.33    0.75    0.01    0.00   92.87    2.77    2.89    1.08    0.00    0.00    0.00    0.00    0.14     0.00    0.00    0.00    0.00
  231   19.73    0.21    1.79    0.74    5.11    0.00   99.30    2.64    2.64    2.61    0.00    0.00    0.00    0.01    0.13     0.00    0.00    0.00    0.00
  232   16.42    0.13    2.29    0.74    7.05    0.00  101.21    1.78    1.78    3.12    0.00    0.00    0.00    0.01    0.18     0.00    0.00    0.00    0.00
  233   11.00    0.01    2.08    0.75    5.85    0.00  100.12    2.37    2.37    2.89    0.00    0.00    0.00    0.01    0.13     0.00    0.00    0.00    0.00
  234    0.54    0.00    1.14    0.76    1.78    0.00   97.64    0.92    1.00    1.93    0.00    0.00    0.00    0.00    0.10     0.00    0.00    0.00    0.00
  235    0.00    0.00    0.89    0.76    0.48    0.00   95.27    1.82    2.22    1.68    0.00    0.00    0.00    0.00    0.01     0.00    0.00    0.00    0.00
  236    0.00    0.00    0.79    0.77    0.11    0.00   93.41    1.73    2.64    1.57    0.00    0.00    0.00    0.00    0.01     0.00    0.00    0.00    0.00
  237    0.00    0.00    0.71    0.77    0.02    0.00   91.40    1.99    3.46    1.50    0.00    0.00    0.00    0.00    0.01     0.00    0.00    0.00    0.00
  238    0.00    0.00    0.66    0.77    0.00    0.00   90.17    1.23    2.42    1.44    0.00    0.00    0.00    0.00    0.01     0.00    0.00    0.00    0.00
  239    0.00    0.00    0.60    0.77    0.00    0.00   87.97    2.20    4.86    1.38    0.00    0.00    0.00    0.00    0.01     0.00    0.00    0.00    0.00
  240    1.62    0.00    0.56    0.77    0.00    0.00   86.94    2.65    3.78    1.34    0.00    0.00    0.00    0.00    0.01     0.00    0.00    0.00    0.00
  241    0.33    0.00    0.52    0.77    0.00    0.00   85.89    1.38    2.58    1.29    0.00    0.00    0.00    0.00    0.02     0.00    0.00    0.00    0.00
  242    0.00    0.00    0.48    0.76    0.00    0.00   84.67    1.22    3.17    1.25    0.00    0.00    0.00    0.00    0.01     0.00    0.00    0.00    0.00
  243    0.00    0.00    0.44    0.76    0.00    0.00   83.77    0.90    2.43    1.20    0.00    0.00    0.00    0.00    0.01     0.00    0.00    0.00    0.00
  244    0.34    0.00    0.41    0.74    0.00    0.00   83.11    1.00    1.94    1.15    0.00    0.00    0.00    0.00    0.01     0.00    0.00    0.00    0.00
    8   88.86    0.40   21.20   25.42   21.02    0.00   83.11   61.47   88.98   47.05    0.00    0.01    0.03    0.04    2.37     0.00    0.00    0.00    0.00
  245    6.11    0.00    0.50    0.73    0.00    0.00   87.12    1.70    1.77    1.23    0.00    0.00    0.00    0.00    0.01     0.00    0.00    0.00    0.00
  246   18.67    0.11    1.61    0.73    2.09    0.00   98.63    0.72    0.72    2.38    0.00    0.00    0.00    0.01    0.04     0.00    0.00    0.00    0.00
  247   27.32    1.76    3.56    0.74   10.36    0.00  103.51    0.88    0.88    4.81    0.00    0.00    0.01    0.02    0.09     0.00    0.00    0.00    0.00
  248    2.57    0.00    1.67    0.75    4.02    0.00   99.64    1.44    1.44    2.75    0.00    0.00    0.00    0.00    0.13     0.00    0.00    0.00    0.00
  249    1.10    0.00    1.09    0.76    1.13    0.00   98.40    0.86    0.86    2.08    0.00    0.00    0.00    0.00    0.02     0.00    0.00    0.00    0.00
  250   29.38    1.99    4.06    0.77   10.59    0.00  103.98    0.91    0.91    5.54    0.00    0.00    0.01    0.02    0.01     0.00    0.00    0.00    0.00
  251    6.72    0.00    2.52    0.80    5.75    0.00  101.10    1.09    1.09    3.79    0.00    0.00    0.00    0.01    0.14     0.00    0.00    0.00    0.00
  252    0.17    0.00    1.59    0.82    1.71    0.00   98.82    0.73    0.75    2.75    0.00    0.00    0.00    0.00    0.07     0.00    0.00    0.00    0.00
  253    0.00    0.00    1.31    0.84    0.47    0.00   96.82    1.69    1.83    2.40    0.00    0.00    0.00    0.00    0.07     0.00    0.00    0.00    0.00
  254    0.00    0.00    1.17    0.85    0.12    0.00   95.58    1.11    1.46    2.22    0.00    0.00    0.00    0.00    0.05     0.00    0.00    0.00    0.00
  255    0.00    0.00    1.07    0.87    0.03    0.00   94.39    1.16    1.67    2.09    0.00    0.00    0.00    0.00    0.01     0.00    0.00    0.00    0.00
  256    0.00    0.00    0.98    0.88    0.01    0.00   92.74    1.65    2.66    1.98    0.00    0.00    0.00    0.00    0.02     0.00    0.00    0.00    0.00
  257    0.00    0.00    0.91    0.89    0.00    0.00   91.84    0.90    1.62    1.89    0.00    0.00    0.00    0.00    0.03     0.00    0.00    0.00    0.00
  258    0.05    0.00    0.84    0.89    0.00    0.00   90.96    0.92    1.58    1.81    0.00    0.00    0.00    0.00    0.01     0.00    0.00    0.00    0.00
  259    5.50    0.00    0.87    0.90    0.00    0.00   94.36    1.75    1.75    1.83    0.00    0.00    0.00    0.00    0.01     0.00    0.00    0.00    0.00
  260    5.16    0.00    0.96    0.90    0.18    0.00   97.26    1.05    1.05    1.91    0.00    0.00    0.00    0.00    0.03     0.00    0.00    0.00    0.00
  261    1.63    0.00    0.80    0.91    0.22    0.00   97.48    0.97    0.97    1.74    0.00    0.00    0.00    0.00    0.03     0.00    0.00    0.00    0.00
  262    0.03    0.00    0.68    0.91    0.07    0.00   97.04    0.85    0.86    1.62    0.00    0.00    0.00    0.00    0.01     0.00    0.00    0.00    0.00
  263    0.00    0.00    0.62    0.91    0.02    0.00   95.54    1.61    1.76    1.55    0.00    0.00    0.00    0.00    0.00     0.00    0.00    0.00    0.00
  264    0.00    0.00    0.57    0.90    0.00    0.00   94.39    1.15    1.58    1.49    0.00    0.00    0.00    0.00    0.01     0.00    0.00    0.00    0.00
  265    1.45    0.00    0.53    0.90    0.00    0.00   94.85    0.56    0.56    1.45    0.00    0.00    0.00    0.00    0.00     0.00    0.00    0.00    0.00
  266    0.00    0.00    0.49    0.90    0.00    0.00   94.29    0.97    1.07    1.40    0.00    0.00    0.00    0.00    0.00     0.00    0.00    0.00    0.00
  267    0.00    0.00    0.45    0.89    0.00    0.00   92.73    1.57    2.25    1.36    0.00    0.00    0.00    0.00    0.00     0.00    0.00    0.00    0.00
  268    0.05    0.00    0.42    0.89    0.00    0.00   91.13    1.65    2.62    1.32    0.00    0.00    0.00    0.00    0.00     0.00    0.00    0.00    0.00
  269    3.21    0.00    0.40    0.88    0.00    0.00   92.87    0.32    0.32    1.29    0.00    0.00    0.00    0.00    0.01     0.00    0.00    0.00    0.00
  270    0.00    0.00    0.37    0.87    0.00    0.00   92.69    0.67    0.68    1.25    0.00    0.00    0.00    0.00    0.01     0.00    0.00    0.00    0.00
  271    0.00    0.00    0.34    0.86    0.00    0.00   92.46    0.63    0.68    1.21    0.00    0.00    0.00    0.00    0.02     0.00    0.00    0.00    0.00
  272    0.09    0.00    0.31    0.85    0.00    0.00   91.89    0.86    1.03    1.17    0.00    0.00    0.00    0.00    0.01     0.00    0.00    0.00    0.00
  273    0.00    0.00    0.29    0.85    0.00    0.00   89.86    2.03    2.99    1.14    0.00    0.00    0.00    0.00    0.01     0.00    0.00    0.00    0.00
  274    0.00    0.00    0.27    0.84    0.00    0.00   88.73    1.13    1.87    1.11    0.00    0.00    0.00    0.00    0.03     0.00    0.00    0.00    0.00
    9  109.21    3.87   31.23   25.45   36.77    0.00   88.73   33.51   41.28   60.56    0.01    0.01    0.04    0.07    0.88     0.00    0.00    0.00    0.00
  275    6.00    0.00    0.37    0.82    0.00    0.00   92.92    0.75    0.75    1.20    0.00    0.00    0.00    0.00    0.01     0.00    0.00    0.00    0.00
  276    0.00    0.00    0.27    0.81    0.00    0.00   92.30    1.31    1.33    1.08    0.00    0.00    0.00    0.00    0.03     0.00    0.00    0.00    0.00
  277    0.00    0.00    0.23    0.80    0.00    0.00   91.33    1.01    1.18    1.04    0.00    0.00    0.00    0.00    0.00     0.00    0.00    0.00    0.00
  278    0.00    0.00    0.21    0.79    0.00    0.00   90.57    0.76    1.01    1.01    0.00    0.00    0.00    0.00    0.00     0.00    0.00    0.00    0.00
  279    3.82    0.00    0.25    0.78    0.00    0.00   92.77    0.61    0.61    1.03    0.00    0.00    0.00    0.00    0.01     0.00    0.00    0.00    0.00
  280    0.10    0.00    0.20    0.77    0.00    0.00   92.55    0.89    0.89    0.97    0.00    0.00    0.00    0.00    0.01     0.00    0.00    0.00    0.00
  281    5.04    0.00    0.40    0.75    0.02    0.00   95.82    0.21    0.21    1.16    0.00    0.00    0.00    0.00    0.00     0.00    0.00    0.00    0.00
  282    3.04    0.00    0.45    0.74    0.44    0.00   97.35    0.97    0.97    1.20    0.00    0.00    0.00    0.00    0.00     0.00    0.00    0.00    0.00
  283    1.58    0.00    0.31    0.73    0.27    0.00   97.60    0.38    0.38    1.04    0.00    0.00    0.00    0.00    0.04     0.00    0.00    0.00    0.00
  284    2.88    0.00    0.45    0.72    0.96    0.00   98.12    1.00    1.00    1.17    0.00    0.00    0.00    0.00    0.01     0.00    0.00    0.00    0.00
  285    4.40    0.00    0.61    0.71    1.64    0.00   98.54    1.13    1.13    1.32    0.00    0.00    0.00    0.00    0.00     0.00    0.00    0.00    0.00
  286    0.57    0.00    0.35    0.70    0.52    0.00   97.57    1.38    1.38    1.05    0.00    0.00    0.00    0.00    0.04     0.00    0.00    0.00    0.00
  287    0.45    0.00    0.28    0.69    0.14    0.00   97.26    0.59    0.60    0.97    0.00    0.00    0.00    0.00    0.00     0.00    0.00    0.00    0.00
  288    0.00    0.00    0.25    0.68    0.03    0.00   96.74    0.57    0.62    0.93    0.00    0.00    0.00    0.00    0.00     0.00    0.00    0.00    0.00
  289    0.00    0.00    0.23    0.67    0.01    0.00   95.61    1.12    1.27    0.90    0.00    0.00    0.00    0.00    0.02     0.00    0.00    0.00    0.00
  290    0.00    0.00    0.21    0.64    0.00    0.00   94.26    1.35    1.83    0.85    0.00    0.00    0.00    0.00    0.02     0.00    0.00    0.00    0.00
  291    1.94    0.00    0.20    0.63    0.00    0.00   94.89    0.26    0.26    0.83    0.00    0.00    0.00    0.00    0.00     0.00    0.00    0.00    0.00
  292    0.00    0.00    0.18    0.62    0.00    0.00   94.79    0.75    0.76    0.80    0.00    0.00    0.00    0.00    0.00     0.00    0.00    0.00    0.00
  293    4.78    0.00    0.33    0.61    0.31    0.00   97.66    0.20    0.20    0.94    0.00    0.00    0.00    0.00    0.00     0.00    0.00    0.00    0.00
  294    0.00    0.00    0.21    0.60    0.10    0.00   97.51    0.35    0.35    0.81    0.00    0.00    0.00    0.00    0.03     0.00    0.00    0.00    0.00
  295    0.00    0.00    0.18    0.59    0.03    0.00   97.24    0.87    0.88    0.77    0.00    0.00    0.00    0.00    0.00     0.00    0.00    0.00    0.00
  296    0.00    0.00    0.16    0.57    0.01    0.00   96.45    1.04    1.07    0.73    0.00    0.00    0.00    0.00    0.02     0.00    0.00    0.00    0.00
  297    2.52    0.00    0.17    0.56    0.05    0.00   97.20    1.22    1.22    0.73    0.00    0.00    0.00    0.00    0.00     0.00    0.00    0.00    0.00
  298    0.23    0.00    0.15    0.53    0.02    0.00   96.82    0.90    0.92    0.68    0.00    0.00    0.00    0.00    0.01     0.00    0.00    0.00    0.00
  299    4.10    0.00    0.33    0.52    0.67    0.00   98.16    0.36    0.36    0.85    0.00    0.00    0.00    0.00    0.00     0.00    0.00    0.00    0.00
  300    5.58    0.01    0.72    0.51    2.27    0.00   99.14    0.50    0.51    1.24    0.00    0.00    0.00    0.00    0.02     0.00    0.00    0.00    0.00
  301   20.68    0.68    2.52    0.51    8.43    0.00  102.69    0.22    0.22    3.23    0.00    0.00    0.00    0.01    0.03     0.00    0.00    0.00    0.00
  302    4.09    0.00    1.43    0.52    4.25    0.00  100.31    0.31    0.32    2.08    0.00    0.00    0.00    0.00    0.06     0.00    0.00    0.00    0.00
  303    2.41    0.00    1.05    0.53    2.08    0.00   99.03    1.41    1.41    1.66    0.00    0.00    0.00    0.00    0.05     0.00    0.00    0.00    0.00
  304    3.31    0.00    0.96    0.53    1.36    0.00   98.34    2.10    2.10    1.56    0.00    0.00    0.00    0.00    0.01     0.00    0.00    0.00    0.00
  305    0.00    0.00    0.71    0.54    0.41    0.00   97.05    0.84    0.95    1.30    0.00    0.00    0.00    0.00    0.02     0.00    0.00    0.00    0.00
   10   77.52    0.70   14.36   20.18   24.01    0.00   97.05   25.38   26.69   35.10    0.00    0.00    0.02    0.03    0.46     0.00    0.00    0.00    0.00
  306    7.50    0.01    1.14    0.54    1.90    0.00   99.31    0.91    0.91    1.73    0.00    0.00    0.00    0.00    0.00     0.00    0.00    0.00    0.00
  307    0.00    0.00    0.74    0.55    0.62    0.00   98.29    0.71    0.72    1.32    0.00    0.00    0.00    0.00    0.00     0.00    0.00    0.00    0.00
  308   14.11    0.07    2.03    0.56    5.10    0.00  101.22    0.26    0.26    2.63    0.00    0.00    0.00    0.01    0.03     0.00    0.00    0.00    0.00
  309    0.00    0.00    1.04    0.57    1.66    0.00   99.21    0.39    0.39    1.64    0.00    0.00    0.00    0.00    0.00     0.00    0.00    0.00    0.00
  310    0.00    0.00    0.81    0.58    0.46    0.00   98.62    0.31    0.31    1.41    0.00    0.00    0.00    0.00    0.00     0.00    0.00    0.00    0.00
  311    6.78    0.01    1.37    0.59    2.43    0.00   99.74    1.00    1.00    1.98    0.00    0.00    0.00    0.00    0.00     0.00    0.00    0.00    0.00
  312    0.07    0.00    0.87    0.60    0.79    0.00   98.57    0.65    0.66    1.48    0.00    0.00    0.00    0.00    0.10     0.00    0.00    0.00    0.00
  313    0.42    0.00    0.73    0.60    0.22    0.00   98.11    0.70    0.72    1.35    0.00    0.00    0.00    0.00    0.01     0.00    0.00    0.00    0.00
  314    0.79    0.00    0.66    0.61    0.06    0.00   98.06    0.51    0.52    1.28    0.00    0.00    0.00    0.00    0.00     0.00    0.00    0.00    0.00
  315    0.00    0.00    0.61    0.61    0.02    0.00   97.63    0.77    0.80    1.23    0.00    0.00    0.00    0.00    0.00     0.00    0.00    0.00    0.00
  316    0.00    0.00    0.56    0.62    0.00    0.00   97.22    0.43    0.48    1.18    0.00    0.00    0.00    0.00    0.00     0.00    0.00    0.00    0.00
  317    1.18    0.00    0.52    0.62    0.00    0.00   96.88    1.48    1.54    1.14    0.00    0.00    0.00    0.00    0.00     0.00    0.00    0.00    0.00
  318   11.43    0.01    1.43    0.62    3.28    0.00  100.35    0.20    0.20    2.07    0.00    0.00    0.00    0.00    0.00     0.00    0.00    0.00    0.00
  319    1.76    0.00    0.95    0.63    1.70    0.00   99.41    0.09    0.09    1.58    0.00    0.00    0.00    0.00    0.04     0.00    0.00    0.00    0.00
  320    3.66    0.00    1.08    0.64    1.92    0.00   99.60    0.30    0.30    1.72    0.00    0.00    0.00    0.00    0.00     0.00    0.00    0.00    0.00
  321    0.00    0.00    0.72    0.64    0.60    0.00   98.83    0.50    0.50    1.36    0.00    0.00    0.00    0.00    0.00     0.00    0.00    0.00    0.00
  322    2.23    0.00    0.77    0.64    0.73    0.00   99.01    0.14    0.14    1.42    0.00    0.00    0.00    0.00    0.00     0.00    0.00    0.00    0.00
  323    0.36    0.00    0.63    0.65    0.31    0.00   98.78    0.25    0.25    1.28    0.00    0.00    0.00    0.00    0.00     0.00    0.00    0.00    0.00
  324    3.66    0.00    0.94    0.65    1.45    0.00   99.31    0.94    0.94    1.59    0.00    0.00    0.00    0.00    0.00     0.00    0.00    0.00    0.00
  325    0.02    0.00    0.63    0.65    0.47    0.00   98.54    0.56    0.56    1.29    0.00    0.00    0.00    0.00    0.00     0.00    0.00    0.00    0.00
  326    0.98    0.00    0.54    0.65    0.13    0.00   98.48    0.24    0.24    1.20    0.00    0.00    0.00    0.00    0.00     0.00    0.00    0.00    0.00
  327    6.44    0.00    1.16    0.66    2.29    0.00   99.92    0.32    0.32    1.82    0.00    0.00    0.00    0.00    0.00     0.00    0.00    0.00    0.00
  328    0.33    0.00    0.68    0.66    0.77    0.00   99.01    0.47    0.47    1.34    0.00    0.00    0.00    0.00    0.01     0.00    0.00    0.00    0.00
  329    0.08    0.00    0.55    0.66    0.22    0.00   98.70    0.51    0.51    1.22    0.00    0.00    0.00    0.00    0.00     0.00    0.00    0.00    0.00
  330    1.52    0.00    0.56    0.66    0.30    0.00   98.84    0.29    0.29    1.22    0.00    0.00    0.00    0.00    0.00     0.00    0.00    0.00    0.00
  331    2.43    0.00    0.72    0.66    0.95    0.00   99.21    0.10    0.10    1.38    0.00    0.00    0.00    0.00    0.00     0.00    0.00    0.00    0.00
  332    1.32    0.00    0.65    0.66    0.79    0.00   99.11    0.12    0.12    1.32    0.00    0.00    0.00    0.00    0.00     0.00    0.00    0.00    0.00
  333    8.82    0.01    1.50    0.67    3.71    0.00  100.70    0.14    0.14    2.17    0.00    0.00    0.00    0.01    0.00     0.00    0.00    0.00    0.00
  334    0.00    0.00    0.77    0.67    1.20    0.00   99.13    1.13    1.13    1.45    0.00    0.00    0.00    0.00    0.08     0.00    0.00    0.00    0.00
  335    0.00    0.00    0.60    0.67    0.33    0.00   98.72    0.04    0.05    1.28    0.00    0.00    0.00    0.00    0.06     0.00    0.00    0.00    0.00
   11   75.88    0.11   26.00   18.82   34.40    0.00   98.72   14.47   14.67   45.08    0.00    0.00    0.03    0.05    0.33     0.00    0.00    0.00    0.00
  336    2.36    0.00    0.64    0.67    0.51    0.00   98.91    1.08    1.08    1.32    0.00    0.00    0.00    0.00    0.04     0.00    0.00    0.00    0.00
  337    0.40    0.00    0.52    0.67    0.16    0.00   98.73    0.01    0.01    1.20    0.00    0.00    0.00    0.00    0.01     0.00    0.00    0.00    0.00
  338    0.05    0.00    0.47    0.67    0.05    0.00   98.67    0.27    0.28    1.15    0.00    0.00    0.00    0.00    0.00     0.00    0.00    0.00    0.00
  339    0.93    0.00    0.49    0.67    0.23    0.00   98.78    0.40    0.40    1.16    0.00    0.00    0.00    0.00    0.00     0.00    0.00    0.00    0.00
  340    0.00    0.00    0.42    0.67    0.07    0.00   98.55    0.42    0.43    1.09    0.00    0.00    0.00    0.00    0.00     0.00    0.00    0.00    0.00
  341    1.92    0.00    0.44    0.67    0.27    0.00   98.80    0.66    0.66    1.11    0.00    0.00    0.00    0.00    0.00     0.00    0.00    0.00    0.00
  342    4.28    0.00    0.77    0.67    1.52    0.00   99.54    0.61    0.61    1.44    0.00    0.00    0.00    0.00    0.00     0.00    0.00    0.00    0.00
  343    0.39    0.00    0.48    0.66    0.49    0.00   98.96    0.30    0.30    1.14    0.00    0.00    0.00    0.00    0.02     0.00    0.00    0.00    0.00
  344    0.00    0.00    0.40    0.66    0.14    0.00   98.70    0.53    0.53    1.06    0.00    0.00    0.00    0.00    0.00     0.00    0.00    0.00    0.00
  345   14.06    0.03    1.86    0.66    5.23    0.00  101.60    0.25    0.25    2.54    0.00    0.00    0.00    0.01    0.00     0.00    0.00    0.00    0.00
  346   11.36    0.01    2.14    0.67    6.15    0.00  101.97    0.53    0.53    2.82    0.00    0.00    0.00    0.01    0.05     0.00    0.00    0.00    0.00
  347    8.24    0.01    1.97    0.68    4.99    0.00  101.38    0.23    0.23    2.66    0.00    0.00    0.00    0.01    0.02     0.00    0.00    0.00    0.00
  348    1.55    0.00    1.24    0.69    2.07    0.00   99.46    1.68    1.68    1.94    0.00    0.00    0.00    0.00    0.06     0.00    0.00    0.00    0.00
  349    5.63    0.00    1.42    0.71    2.13    0.00   99.98    0.60    0.60    2.14    0.00    0.00    0.00    0.01    0.00     0.00    0.00    0.00    0.00
  350   23.69    0.63    2.07    0.72    5.01    0.00  101.51    0.17    0.17    2.97    0.00    0.00    0.00    0.02    0.00     0.00    0.00    0.00    0.00
  351    5.14    0.00    1.18    0.73    1.59    0.00   99.60    0.13    0.13    2.03    0.00    0.00    0.00    0.00    0.00     0.00    0.00    0.00    0.00
  352    0.32    0.00    0.98    0.75    0.42    0.00   99.11    0.00    0.00    1.81    0.00    0.00    0.00    0.00    0.00     0.00    0.00    0.00    0.00
  353    0.00    0.00    0.88    0.76    0.11    0.00   98.98    0.00    0.00    1.70    0.00    0.00    0.00    0.00    0.00     0.00    0.00    0.00    0.00
  354    0.00    0.00    0.81    0.76    0.03    0.00   98.95    0.00    0.00    1.62    0.00    0.00    0.00    0.00    0.00     0.00    0.00    0.00    0.00
  355    0.00    0.00    0.75    0.77    0.01    0.00   98.87    0.36    0.40    1.55    0.00    0.00    0.00    0.00    0.00     0.00    0.00    0.00    0.00
  356    0.00    0.00    0.69    0.77    0.00    0.00   98.46    0.46    0.76    1.50    0.00    0.00    0.00    0.00    0.00     0.00    0.00    0.00    0.00
  357    0.00    0.00    0.64    0.78    0.00    0.00   98.14    0.32    0.64    1.44    0.00    0.00    0.00    0.00    0.00     0.00    0.00    0.00    0.00
  358    0.00    0.01    0.61    0.78    0.43    0.00   99.90    0.61    1.05    1.41    0.00    0.00    0.00    0.00    0.00     0.00    0.00    0.00    0.00
  359   11.60    0.00    0.57    0.78    0.15    0.00   99.71    0.11    0.12    1.36    0.00    0.00    0.00    0.00    0.00     0.00    0.00    0.00    0.00
  360    3.13    0.00    0.53    0.78    0.04    0.00   99.66    0.04    0.04    1.32    0.00    0.00    0.00    0.00    0.00     0.00    0.00    0.00    0.00
  361    7.18    0.00    0.49    0.78    0.01    0.00   99.65    0.01    0.01    1.28    0.00    0.00    0.00    0.00    0.00     0.00    0.00    0.00    0.00
  362    4.87    0.00    0.45    0.78    0.00    0.00   99.64    0.00    0.00    1.24    0.00    0.00    0.00    0.00    0.00     0.00    0.00    0.00    0.00
  363    1.69    0.00    0.42    0.77    0.00    0.00   99.64    0.08    0.08    1.20    0.00    0.00    0.00    0.00    0.00     0.00    0.00    0.00    0.00
  364    0.00    0.00    0.39    0.77    0.00    0.00   99.64    0.12    0.12    1.17    0.00    0.00    0.00    0.00    0.00     0.00    0.00    0.00    0.00
  365   11.51    0.00    0.36    0.77    0.00    0.00   99.64    0.02    0.02    1.13    0.00    0.00    0.00    0.00    0.00     0.00    0.00    0.00    0.00
  366    0.44    0.00    0.34    0.76    0.00    0.00   99.64    0.00    0.00    1.10    0.00    0.00    0.00    0.00    0.00     0.00    0.00    0.00    0.00
   12  120.72    0.70   25.45   22.44   31.83    0.00   99.64   10.00   11.14   48.59    0.00    0.00    0.03    0.08    0.22     0.00    0.00    0.00    0.00

 2000 1527.08  140.29  444.44  439.55  597.62    0.00   99.64  369.40  577.75 1024.94    0.24    0.32    1.61    5.84    8.24     0.05    0.10    0.01    0.00
1
    SWAT Sep 7    VER 2018/Rev 670                                                  

    General Input/Output section (file.cio):                                        
    1/17/2019 12:00:00 AM ARCGIS-SWAT interface AV                                  
                                                                                    
Annual Summary for Watershed in year    4 of simulation

UNIT                                    PERCO    TILE                           WATER     SED     NO3     NO3     NO3     NO3        N       P       P
TIME     PREC    SURQ    LATQ     GWQ    LATE       Q     SW       ET     PET   YIELD   YIELD    SURQ    LATQ    PERC    CROP  ORGANIC SOLUBLE ORGANIC TILENO3
         (mm)    (mm)    (mm)    (mm)    (mm)    (mm)    (mm)    (mm)    (mm)    (mm)   (t/ha)  ------------------(kg nutrient/ha)-------------------- (kg/ha)
    1    8.68    0.00    0.31    0.75    0.00    0.00   99.26    0.38    0.75    1.07    0.00    0.00    0.00    0.00    0.00     0.00    0.00    0.00    0.00
    2    0.55    0.76    0.29    0.75    0.00    0.00  106.96    0.02    0.05    1.25    0.00    0.00    0.00    0.00    0.00     0.00    0.00    0.00    0.00
    3    1.73    2.44    0.36    0.74    0.30    0.00  117.07    0.15    0.29    1.90    0.00    0.00    0.00    0.00    0.00     0.00    0.00    0.00    0.00
    4    5.16    1.06    0.74    0.73    1.51    0.00  119.59    0.15    0.30    2.31    0.00    0.00    0.00    0.00    0.00     0.00    0.00    0.00    0.00
    5   32.84   26.74    4.07    0.73    8.90    0.00  124.55    0.08    0.14   12.15    0.06    0.01    0.02    0.03    0.00     0.00    0.01    0.00    0.00
    6    2.16    2.43    3.91    0.75   12.72    0.00  115.27    0.07    0.10   10.23    0.04    0.01    0.01    0.07    0.00     0.00    0.00    0.00    0.00
    7    0.00    0.01    2.48    0.77    7.72    0.00  106.96    0.14    0.22    7.27    0.02    0.01    0.01    0.05    0.00     0.00    0.00    0.00    0.00
    8    1.52    0.00    1.31    0.79    2.35    0.00  104.39    0.09    0.14    5.11    0.01    0.01    0.00    0.01    0.00     0.00    0.00    0.00    0.00
    9    2.81    0.00    0.99    0.81    0.64    0.00  103.62    0.02    0.04    4.10    0.00    0.00    0.00    0.00    0.00     0.00    0.00    0.00    0.00
   10    0.94    0.00    0.86    0.83    0.17    0.00  103.42    0.00    0.01    3.48    0.00    0.00    0.00    0.00    0.00     0.00    0.00    0.00    0.00
   11    0.27    0.00    0.78    0.84    0.05    0.00  103.26    0.10    0.21    3.03    0.00    0.00    0.00    0.00    0.00     0.00    0.00    0.00    0.00
   12    0.00    0.00    0.71    0.85    0.02    0.00  103.14    0.11    0.22    2.69    0.00    0.00    0.00    0.00    0.00     0.00    0.00    0.00    0.00
   13    0.00    0.00    0.66    0.86    0.01    0.00  103.03    0.10    0.21    2.42    0.00    0.00    0.00    0.00    0.00     0.00    0.00    0.00    0.00
   14    0.00    0.00    0.61    0.87    0.00    0.00  102.89    0.13    0.26    2.20    0.00    0.00    0.00    0.00    0.00     0.00    0.00    0.00    0.00
   15    0.00    0.00    0.56    0.87    0.00    0.00  102.52    0.38    0.75    2.03    0.00    0.00    0.00    0.00    0.00     0.00    0.00    0.00    0.00
   16    0.00    0.00    0.52    0.88    0.00    0.00  101.93    0.58    1.17    1.88    0.00    0.00    0.00    0.00    0.00     0.00    0.00    0.00    0.00
   17    0.00    0.00    0.48    0.88    0.00    0.00  101.86    0.07    0.15    1.76    0.00    0.00    0.00    0.00    0.00     0.00    0.00    0.00    0.00
   18    0.00    0.00    0.45    0.88    0.00    0.00  101.78    0.08    0.17    1.65    0.00    0.00    0.00    0.00    0.00     0.00    0.00    0.00    0.00
   19    0.15    0.00    0.42    0.88    0.00    0.00  101.76    0.02    0.03    1.56    0.00    0.00    0.00    0.00    0.00     0.00    0.00    0.00    0.00
   20    0.85    0.00    0.39    0.88    0.00    0.00  101.75    0.01    0.02    1.49    0.00    0.00    0.00    0.00    0.00     0.00    0.00    0.00    0.00
   21   11.11    0.00    0.36    0.88    0.00    0.00  101.74    0.01    0.02    1.42    0.00    0.00    0.00    0.00    0.00     0.00    0.00    0.00    0.00
   22   11.52    0.00    0.33    0.87    0.00    0.00  101.72    0.03    0.05    1.36    0.00    0.00    0.00    0.00    0.00     0.00    0.00    0.00    0.00
   23    8.18    2.22    0.31    0.87    0.01    0.00  110.78    0.01    0.02    1.92    0.00    0.00    0.00    0.00    0.00     0.00    0.00    0.00    0.00
   24    5.96    7.28    0.73    0.87    1.83    0.00  122.95    0.21    0.29    4.02    0.02    0.01    0.00    0.01    0.00     0.00    0.00    0.00    0.00
   25    4.31    2.06    2.50    0.87    4.85    0.00  122.77    0.16    0.23    5.57    0.02    0.01    0.01    0.03    0.00     0.00    0.00    0.00    0.00
   26    0.12    0.00    1.08    0.87    2.11    0.00  121.42    0.22    0.31    3.50    0.01    0.00    0.00    0.01    0.00     0.00    0.00    0.00    0.00
   27   28.73    0.29    0.62    0.87    1.06    0.00  121.08    0.13    0.25    2.79    0.00    0.00    0.00    0.01    0.00     0.00    0.00    0.00    0.00
   28    5.66    0.00    0.44    0.87    0.32    0.00  120.70    0.02    0.03    2.25    0.00    0.00    0.00    0.00    0.00     0.00    0.00    0.00    0.00
   29    0.00    0.00    0.66    0.87    0.10    0.00  120.26    0.01    0.02    2.24    0.00    0.00    0.00    0.00    0.00     0.00    0.00    0.00    0.00
   30    0.66    0.00    0.37    0.87    0.03    0.00  120.23    0.00    0.00    1.79    0.00    0.00    0.00    0.00    0.00     0.00    0.00    0.00    0.00
   31    1.54    0.00    0.32    0.87    0.01    0.00  120.20    0.01    0.03    1.62    0.00    0.00    0.00    0.00    0.00     0.00    0.00    0.00    0.00
    1  135.46   45.30   28.63   25.94   44.72    0.00  120.20    3.49    6.49   98.05    0.19    0.10    0.10    0.24    0.00     0.03    0.03    0.00    0.00
   32    4.56    0.00    0.29    0.87    0.00    0.00  120.15    0.05    0.10    1.50    0.00    0.00    0.00    0.00    0.00     0.00    0.00    0.00    0.00
   33    2.53    0.00    0.27    0.86    0.00    0.00  120.14    0.01    0.02    1.40    0.00    0.00    0.00    0.00    0.00     0.00    0.00    0.00    0.00
   34    9.83    0.00    0.25    0.86    0.00    0.00  120.12    0.01    0.03    1.32    0.00    0.00    0.00    0.00    0.00     0.00    0.00    0.00    0.00
   35   18.83    0.00    0.23    0.85    0.00    0.00  120.11    0.01    0.03    1.26    0.00    0.00    0.00    0.00    0.00     0.00    0.00    0.00    0.00
   36    5.33    4.45    0.63    0.85    4.63    0.00  124.68    0.03    0.05    2.81    0.01    0.00    0.00    0.03    0.00     0.00    0.00    0.00    0.00
   37   10.72   20.62    5.12    0.85    9.84    0.00  124.83    0.17    0.33   12.15    0.07    0.01    0.02    0.08    0.00     0.00    0.00    0.00    0.00
   38    5.68    8.16    4.92    0.87   14.70    0.00  118.71    0.33    0.44   12.07    0.05    0.01    0.01    0.16    0.00     0.00    0.00    0.00    0.00
   39    0.47    2.91    5.05    0.91   14.22    0.00  106.93    2.65    3.39   11.10    0.05    0.01    0.01    0.19    0.00     0.00    0.00    0.00    0.00
   40    0.69    0.30    2.64    0.94    6.89    0.00  103.55    0.27    0.35    7.44    0.04    0.01    0.01    0.09    0.00     0.00    0.00    0.00    0.00
   41    0.00    0.00    1.60    0.98    2.01    0.00  100.92    0.29    0.37    5.49    0.02    0.01    0.01    0.02    0.00     0.00    0.00    0.00    0.00
   42    0.05    0.00    1.29    1.02    0.56    0.00   99.42    0.93    1.18    4.54    0.01    0.01    0.01    0.01    0.00     0.00    0.00    0.00    0.00
   43    1.42    0.00    1.66    1.05    0.50    0.00   98.91    0.65    0.71    4.46    0.00    0.00    0.01    0.01    0.00     0.00    0.00    0.00    0.00
   44    0.00    0.00    1.62    1.07    0.29    0.00   97.53    0.41    0.51    4.09    0.00    0.00    0.00    0.00    0.00     0.00    0.00    0.00    0.00
   45    0.00    0.00    1.10    1.10    0.08    0.00   96.92    0.52    0.70    3.31    0.00    0.00    0.00    0.00    0.00     0.00    0.00    0.00    0.00
   46    0.00    0.00    0.98    1.12    0.04    0.00   96.25    0.56    0.87    2.99    0.00    0.00    0.00    0.00    0.00     0.00    0.00    0.00    0.00
   47    0.22    0.00    0.84    1.14    0.01    0.00   95.81    0.65    0.99    2.70    0.00    0.00    0.00    0.00    0.00     0.00    0.00    0.00    0.00
   48    0.27    0.00    0.77    1.15    0.01    0.00   95.85    0.10    0.17    2.51    0.00    0.00    0.00    0.00    0.00     0.00    0.00    0.00    0.00
   49    0.27    0.00    0.71    1.16    0.00    0.00   95.71    0.13    0.28    2.35    0.00    0.00    0.00    0.00    0.00     0.00    0.00    0.00    0.00
   50    4.09    0.00    0.69    1.17    0.00    0.00   96.86    0.08    0.23    2.25    0.00    0.00    0.00    0.00    0.00     0.00    0.00    0.00    0.00
   51    1.95    0.00    0.72    1.18    0.37    0.00   97.50    0.27    0.43    2.22    0.00    0.00    0.00    0.00    0.00     0.00    0.00    0.00    0.00
   52    8.72    0.01    0.98    1.18    1.85    0.00   99.05    0.35    0.48    2.44    0.00    0.00    0.01    0.02    0.00     0.00    0.00    0.00    0.00
   53   19.96    0.00    0.69    1.19    0.65    0.00   98.50    0.16    0.34    2.11    0.00    0.00    0.00    0.01    0.00     0.00    0.00    0.00    0.00
   54    5.42    0.00    0.61    1.19    0.17    0.00   98.15    0.14    0.29    1.98    0.00    0.00    0.00    0.00    0.00     0.00    0.00    0.00    0.00
   55    0.00    0.00    0.56    1.19    0.04    0.00   98.07    0.03    0.07    1.90    0.00    0.00    0.00    0.00    0.00     0.00    0.00    0.00    0.00
   56    4.38    0.00    0.51    1.19    0.01    0.00   97.93    0.12    0.26    1.83    0.00    0.00    0.00    0.00    0.00     0.00    0.00    0.00    0.00
   57    1.15    0.00    0.48    1.18    0.00    0.00   97.87    0.06    0.14    1.77    0.00    0.00    0.00    0.00    0.00     0.00    0.00    0.00    0.00
   58    0.00    0.00    0.44    1.18    0.00    0.00   97.65    0.22    0.48    1.71    0.00    0.00    0.00    0.00    0.00     0.00    0.00    0.00    0.00
   59    0.00    0.02    0.41    1.17    0.00    0.00   99.01    0.26    0.60    1.67    0.00    0.00    0.00    0.00    0.00     0.00    0.00    0.00    0.00
    2  106.54   36.46   36.07   29.47   56.89    0.00   99.01    9.49   13.84  103.39    0.26    0.09    0.12    0.62    0.00     0.03    0.03    0.00    0.00
   60    4.04    0.00    0.38    1.17    0.00    0.00   98.93    0.08    0.19    1.62    0.00    0.00    0.00    0.00    0.00     0.00    0.00    0.00    0.00
   61    3.20    0.00    0.35    1.16    0.00    0.00   98.90    0.03    0.07    1.57    0.00    0.00    0.00    0.00    0.00     0.00    0.00    0.00    0.00
   62    1.47    0.00    0.33    1.15    0.00    0.00   98.85    0.05    0.12    1.52    0.00    0.00    0.00    0.00    0.00     0.00    0.00    0.00    0.00
   63    2.77    0.00    0.30    1.14    0.00    0.00   98.83    0.02    0.05    1.48    0.00    0.00    0.00    0.00    0.00     0.00    0.00    0.00    0.00
   64    0.00    0.00    0.28    1.12    0.00    0.00   98.80    0.03    0.07    1.44    0.00    0.00    0.00    0.00    0.00     0.00    0.00    0.00    0.00
   65    0.00    0.00    0.26    1.11    0.00    0.00   98.64    0.16    0.41    1.40    0.00    0.00    0.00    0.00    0.00     0.00    0.00    0.00    0.00
   66    1.86    0.79    0.24    1.10    0.00    0.00  105.93    0.34    0.67    1.58    0.00    0.00    0.00    0.00    0.00     0.00    0.00    0.00    0.00
   67    0.60   14.06    1.07    1.09    2.27    0.00  121.67    0.34    0.45    5.95    0.03    0.01    0.01    0.02    0.00     0.00    0.00    0.00    0.00
   68    4.36    2.10    2.28    1.08    7.36    0.00  117.44    0.77    0.81    6.46    0.02    0.01    0.01    0.08    0.00     0.00    0.00    0.00    0.00
   69    9.65    0.03    3.37    1.09   11.25    0.00  107.32    0.54    0.57    6.67    0.01    0.00    0.02    0.17    0.00     0.00    0.00    0.00    0.00
   70    6.44    0.00    3.32    1.10    6.61    0.00  101.67    0.66    0.69    6.06    0.00    0.00    0.01    0.09    0.00     0.00    0.00    0.00    0.00
   71    3.99    0.00    1.84    1.11    3.19    0.00  100.33    0.51    0.54    4.20    0.00    0.00    0.01    0.04    0.00     0.00    0.00    0.00    0.00
   72    9.73    0.01    2.22    1.13    4.62    0.00  100.78    0.91    0.96    4.32    0.00    0.00    0.01    0.06    0.00     0.00    0.00    0.00    0.00
   73    1.26    0.00    1.34    1.14    1.60    0.00   99.52    0.49    0.51    3.24    0.00    0.00    0.01    0.02    0.00     0.00    0.00    0.00    0.00
   74    0.77    0.00    1.08    1.16    0.55    0.00   98.86    0.70    0.74    2.83    0.00    0.00    0.00    0.01    0.00     0.00    0.00    0.00    0.00
   75    0.67    0.00    0.95    1.17    0.18    0.00   99.00    0.27    0.29    2.60    0.00    0.00    0.00    0.00    0.00     0.00    0.00    0.00    0.00
   76    1.58    0.00    0.99    1.17    0.52    0.00   99.18    0.40    0.42    2.54    0.00    0.00    0.00    0.01    0.00     0.00    0.00    0.00    0.00
   77   15.16    0.07    2.58    1.19    6.06    0.00  102.35    0.16    0.17    4.10    0.00    0.00    0.01    0.08    0.00     0.00    0.00    0.00    0.00
   78   12.67    0.02    2.33    1.20    5.45    0.00  102.03    0.19    0.38    3.80    0.00    0.00    0.01    0.08    0.00     0.00    0.00    0.00    0.00
   79    0.00    0.00    1.36    1.21    1.69    0.00   99.79    0.24    0.49    2.79    0.00    0.00    0.01    0.02    0.00     0.00    0.00    0.00    0.00
   80    6.56    0.00    1.11    1.22    0.45    0.00   99.10    0.16    0.35    2.51    0.00    0.00    0.00    0.01    0.00     0.00    0.00    0.00    0.00
   81    2.02    0.10    1.28    1.23    1.56    0.00  105.12    0.16    0.18    2.69    0.00    0.00    0.01    0.02    0.00     0.00    0.00    0.00    0.00
   82   14.58    0.11    1.52    1.24    3.22    0.00  109.14    0.05    0.05    2.94    0.00    0.00    0.01    0.05    0.00     0.00    0.00    0.00    0.00
   83    9.45    2.99    2.86    1.25    6.93    0.00  111.26    0.48    0.50    4.94    0.01    0.00    0.02    0.11    0.00     0.00    0.00    0.00    0.00
   84   15.30    0.00    1.50    1.27    2.17    0.00  108.61    0.06    0.12    3.32    0.00    0.00    0.01    0.03    0.00     0.00    0.00    0.00    0.00
   85    0.05    0.00    1.17    1.28    0.59    0.00  107.87    0.05    0.11    2.85    0.00    0.00    0.01    0.01    0.00     0.00    0.00    0.00    0.00
   86    0.00    0.00    1.03    1.28    0.16    0.00  107.50    0.19    0.38    2.63    0.00    0.00    0.00    0.00    0.00     0.00    0.00    0.00    0.00
   87    4.41    0.00    0.95    1.29    0.04    0.00  107.31    0.14    0.28    2.49    0.00    0.00    0.00    0.00    0.00     0.00    0.00    0.00    0.00
   88    0.75    4.99    1.29    1.30    2.15    0.00  117.36    0.71    0.83    4.09    0.01    0.00    0.01    0.03    0.00     0.00    0.00    0.00    0.00
   89    0.77    0.01    1.37    1.30    3.74    0.00  112.66    1.12    1.18    3.72    0.01    0.00    0.01    0.05    0.00     0.00    0.00    0.00    0.00
   90    0.00    0.00    2.37    1.31    5.19    0.00  101.65    2.14    2.24    4.46    0.00    0.00    0.01    0.08    0.00     0.00    0.00    0.00    0.00
    3  134.14   25.30   43.34   36.77   77.57    0.00  101.65   12.15   14.83  102.84    0.10    0.05    0.21    1.06    0.00     0.01    0.02    0.00    0.00
   91    0.00    0.00    2.21    1.32    1.59    0.00   97.21    1.45    1.86    4.12    0.00    0.00    0.01    0.02    0.00     0.00    0.00    0.00    0.00
   92    0.63    0.00    1.22    1.33    0.42    0.00   95.45    1.89    2.86    3.01    0.00    0.00    0.01    0.01    0.00     0.00    0.00    0.00    0.00
   93    2.28    0.00    1.00    1.34    0.11    0.00   96.34    1.15    1.24    2.70    0.00    0.00    0.00    0.00    0.00     0.00    0.00    0.00    0.00
   94    4.16    0.00    1.07    1.34    0.39    0.00   97.78    1.67    1.74    2.70    0.00    0.00    0.00    0.01    0.00     0.00    0.00    0.00    0.00
   95   16.11    0.12    2.51    1.35    5.81    0.00  100.57    1.83    1.91    4.13    0.00    0.00    0.01    0.10    0.00     0.00    0.00    0.00    0.00
   96   11.68    0.03    2.49    1.36    5.81    0.00  101.56    0.71    0.74    4.08    0.00    0.00    0.01    0.10    0.00     0.00    0.00    0.00    0.00
[...]

    HRU STATISTICS

                AVE ANNUAL VALUES

   HRU  SUB  SOIL       AREAkm2    CN     AWCmm   USLE_LS  IRRmm  AUTONkh AUTOPkh  MIXEF PRECmm SURQGENmm   GWQmm    ETmm   SEDth  NO3kgh  ORGNkgh BIOMth   YLDth  SURQmm
      1   1   B59H5401   .280E-02   66.22   88.00    0.50    0.00   70.07    0.00    0.20 1365.73  296.47    2.92  400.67    0.01    3.83    3.87    0.42    0.00  296.82
      2   1   B59H5401   .759E-02   66.22   88.00    2.75    0.00   69.64    0.00    0.20 1365.73  295.01   80.83  400.26    0.05    4.63    2.39    0.42    0.00  295.02
      3   1   B59H8301   .755E-01   66.22   88.00    2.82    0.00   69.55    0.00    0.20 1365.73  294.58  103.16  400.12    0.07    4.37    0.84    0.42    0.00  294.58
      4   1   B59H8301   .188E-01   66.22   88.00    0.54    0.00   70.07    0.00    0.20 1365.73  296.47    3.10  400.67    0.01    2.77    1.41    0.42    0.00  296.81
      5   1   B59H8301   .459E+00   69.00   88.00    3.27    0.00    0.00    0.00    0.20 1365.73  233.26  231.35  347.00    4.24    0.02    0.21    0.00    0.00  233.26
      6   1   B59H8301   .548E-01   69.00   88.00    0.65    0.00    0.00    0.00    0.20 1365.73  237.95    4.03  347.89    0.34    0.00    0.02    0.00    0.00  238.42
      7   1   B59H5401   .240E-02   66.00   88.00    3.88    0.00    0.00    0.00    0.20 1365.73  197.79  142.93  360.92    1.92    0.01    0.10    0.07    0.00  197.79
      8   1   B59H8301   .680E+01   66.00   88.00    6.12    0.00    0.00    0.00    0.20 1365.73  194.66  320.11  360.07    4.69    0.02    0.19    0.08    0.00  194.79
      9   1   B59H8301   .124E+00   66.00   88.00    0.58    0.00    0.00    0.00    0.20 1365.73  200.66    3.82  361.51    0.26    0.00    0.02    0.07    0.00  200.96
     10   1   B63H8301   .144E-01   45.00  119.00    3.21    0.00    0.00    0.00    0.20 1365.73    3.84 1054.12  311.84    0.27    0.73    0.03    0.96    0.00    3.84
     11   1   B59H8301   .145E+00   55.00   88.00    0.56    0.00    0.00    0.00    0.20 1365.73  103.01    4.08  362.29    0.11    0.00    0.01    0.10    0.00  103.11
     12   1   B59H8301   .473E+01   55.00   88.00    3.29    0.00    0.00    0.00    0.20 1365.73   96.87  262.77  361.50    1.07    0.01    0.06    0.12    0.00   96.90
     13   1   B63H8301   .140E+01   35.00  119.00    2.85    0.00    0.00    0.00    0.20 1365.73    3.41  972.75  344.87    0.22    0.39    0.02    0.65    0.00    3.41
     14   1   B63H8301   .220E-01   35.00  119.00    0.54    0.00    0.00    0.00    0.20 1365.73    3.71   94.61  365.83    0.02    0.02    0.00    0.57    0.00    3.71
     15   1   B63H8301   .252E-01   39.00  119.00    0.50    0.00    0.00    0.00    0.20 1365.73   12.07   89.52  358.11    0.07    0.03    0.01    0.01    0.00   12.07
     16   1   B63H8301   .107E+00   39.00  119.00    1.78    0.00    0.00    0.00    0.20 1365.73   11.79  734.41  349.05    0.72    0.26    0.10    0.01    0.00   11.79
     17   2   B59H5401   .959E-02   66.22   88.00    0.46    0.00   66.26    0.00    0.20 1471.81  338.21  359.77  398.96    0.01    3.88    2.14    0.41    0.00  338.65
     18   2   B59H5401   .120E-01   66.22   88.00    1.82    0.00   66.21    0.00    0.20 1471.81  337.96  365.23  398.91    0.03    4.01    1.96    0.41    0.00  338.13
     19   2   B59H8301   .203E+00   66.22   88.00    0.38    0.00   66.26    0.00    0.20 1471.81  338.22  359.57  398.96    0.01    3.14    0.43    0.41    0.00  338.70
     20   2   B59H8301   .428E+00   66.22   88.00    3.88    0.00   65.33    0.00    0.20 1471.81  332.79  483.45  397.53    0.13    8.20    0.63    0.41    0.00  332.79
     21   2   B59H5401   .400E-03   69.00   88.00    0.72    0.00    0.00    0.00    0.20 1471.81  275.77  407.90  365.89    0.10    0.86    0.05    0.03    0.00  276.32
     22   2   B59H5401   .216E-01   69.00   88.00    3.19    0.00    0.00    0.00    0.20 1471.81  268.80  532.72  364.92    1.51    1.86    0.57    0.03    0.00  268.81
     23   2   B59H5401   .839E-02   66.00   88.00    3.88    0.00    0.00    0.00    0.20 1471.81  227.10  505.41  371.31    0.06    1.22    0.02    2.42    0.00  227.10
     24   2   B59H5401   .360E-02   66.00   88.00    0.60    0.00    0.00    0.00    0.20 1471.81  231.13  427.25  371.79    0.00    0.67    0.00    2.39    0.00  231.49
     25   2   B59H8301   .262E+00   66.00   88.00    0.40    0.00    0.00    0.00    0.20 1471.81  231.16  426.67  371.79    0.00    0.66    0.00    2.39    0.00  231.58
     26   2   B59H8301   .101E+02   66.00   88.00    6.72    0.00    0.00    0.00    0.20 1471.81  222.41  612.09  370.51    0.12    2.01    0.04    2.46    0.00  222.64
     27   2   B59H5401   .116E-01   55.00   88.00    3.07    0.00    0.00    0.00    0.20 1471.81  111.36  615.51  386.91    0.00    1.12    0.00    4.53    0.00  111.36
     28   2   B59H8301   .784E+01   55.00   88.00    5.56    0.00    0.00    0.00    0.20 1471.81  109.69  661.96  386.69    0.01    1.39    0.00    4.55    0.00  109.75
     29   2   B59H8301   .265E+00   55.00   88.00    0.50    0.00    0.00    0.00    0.20 1471.81  117.92  475.74  387.52    0.00    0.31    0.00    4.49    0.00  118.06
     30   2   B63H8301   .559E-02   35.00  119.00    0.58    0.00    0.00    0.00    0.20 1471.81    4.31  582.90  392.13    0.00    0.39    0.00    6.60    0.00    4.31
     31   2   B63H8301   .161E+01   35.00  119.00    3.86    0.00    0.00    0.00    0.20 1471.81    0.00 1157.81  319.56    0.00    4.02    0.00    4.01    0.00    0.00
     32   2   B59H8301   .265E+01   60.00   88.00    6.75    0.00    0.00    0.00    0.20 1471.81  156.42  658.20  370.39    0.10    1.82    0.04    2.42    0.00  156.44
     33   2   B59H8301   .655E-01   60.00   88.00    0.52    0.00    0.00    0.00    0.20 1471.81  166.70  459.23  371.67    0.00    0.46    0.00    2.34    0.00  166.95
     34   2   B63H8301   .164E-01   36.00  119.00    6.72    0.00    0.00    0.00    0.20 1471.81    0.00 1164.94  312.63    0.00    4.66    0.00    2.17    0.00    0.00
     35   2   B63H8301   .316E-01   39.00  119.00    0.52    0.00    0.00    0.00    0.20 1471.81   13.78  581.55  376.71    0.01    0.49    0.00    0.11    0.00   13.78
     36   2   B63H8301   .408E+00   39.00  119.00    2.31    0.00    0.00    0.00    0.20 1471.81   13.04 1029.99  361.62    0.14    3.98    0.09    0.07    0.00   13.04
     37   3   B59H8301   .103E+00   66.22   88.00    5.32    0.00   68.93    0.00    0.20 1515.79  355.93  758.89  395.09    0.18    9.90    1.07    0.42    0.00  355.93
     38   3   B59H8301   .624E-01   66.22   88.00    0.40    0.00   70.21    0.00    0.20 1515.79  363.19  747.91  396.74    0.01    3.55    0.82    0.42    0.00  363.74
     39   3   B59H8301   .172E+00   66.00   88.00    9.23    0.00    0.00    0.00    0.20 1515.79  239.24  903.40  367.59    0.21    2.32    0.06    2.44    0.00  239.24
     40   3   B59H8301   .953E+00   55.00   88.00    5.44    0.00    0.00    0.00    0.20 1515.79  118.93 1006.52  384.27    0.01    1.44    0.00    4.54    0.00  118.93
     41   3   B59H8301   .560E-02   55.00   88.00    0.54    0.00    0.00    0.00    0.20 1515.79  128.51  993.31  385.05    0.00    0.33    0.00    4.48    0.00  128.69
     42   3   B59H8301   .959E-02   60.00   88.00    0.38    0.00    0.00    0.00    0.20 1515.79  180.11  957.71  369.06    0.00    0.48    0.00    2.31    0.00  180.45
     43   3   B59H8301   .735E-01   60.00   88.00    3.94    0.00    0.00    0.00    0.20 1515.79  171.40  969.63  368.11    0.06    1.57    0.02    2.36    0.00  171.40
     44   4   B59H8301   .208E-01   66.22   88.00    0.48    0.00   54.16    0.00    0.20 1653.15  434.06  801.42  407.19    0.03    3.66    1.62    0.25    0.00  434.33
     45   4   B59H8301   .559E-02   66.22   88.00    1.10    0.00   54.18    0.00    0.20 1653.15  433.81  801.62  407.17    0.05    4.48    3.27    0.25    0.00  433.97
     46   4   B59H8301   .240E-01   69.00   88.00    0.52    0.00    0.00    0.00    0.20 1653.15  368.02  894.19  379.61    0.21    1.15    0.08    0.03    0.00  368.34
     47   4   B59H8301   .811E-01   69.00   88.00    2.42    0.00    0.00    0.00    0.20 1653.15  364.24  899.29  379.15    1.73    1.54    0.60    0.03    0.00  364.26
     48   4   B07H8301   .625E+00   55.00  442.28    3.13    0.00    0.00    0.00    0.20 1653.15  180.01 1028.49  437.52    0.14    2.00    0.08    5.41    0.00  180.01
     49   4   B59H8301   .893E+00   55.00   88.00    0.52    0.00    0.00    0.00    0.20 1653.15  168.10 1064.16  408.40    0.00    0.44    0.00    3.85    0.00  168.17
     50   4   B59H8301   .186E+02   55.00   88.00    4.25    0.00    0.00    0.00    0.20 1653.15  155.50 1080.01  407.90    0.01    1.53    0.01    3.95    0.00  155.57
     51   4   B63H8301   .675E-01   35.00  119.00    0.50    0.00    0.00    0.00    0.20 1653.15    7.55 1217.78  414.05    0.00    0.41    0.00    5.96    0.00    7.55
     52   4   B63H8301   .258E+01   35.00  119.00    3.15    0.00    0.00    0.00    0.20 1653.15    6.36 1248.65  388.65    0.00    4.13    0.00    3.91    0.00    6.36
     53   4   B59H8301   .795E-01   60.00   88.00    0.40    0.00    0.00    0.00    0.20 1653.15  228.29 1023.57  390.42    0.01    0.62    0.00    1.71    0.00  228.44
     54   4   B59H8301   .165E+01   60.00   88.00    8.67    0.00    0.00    0.00    0.20 1653.15  210.34 1045.69  388.77    0.36    2.39    0.10    1.78    0.00  210.34
     55   4   B07H8301   .117E+01   61.00  442.28    2.02    0.00    0.00    0.00    0.20 1653.15  277.06  944.20  420.82    8.61    1.24    1.86    0.07    0.00  277.10
     56   4   B07H8301   .138E+00   61.00  442.28    0.54    0.00    0.00    0.00    0.20 1653.15  282.59  936.44  421.79    1.29    0.84    0.50    0.07    0.00  282.75
     57   4   B59H8301   .138E+00   61.00   88.00    0.60    0.00    0.00    0.00    0.20 1653.15  244.50 1010.71  386.60    0.10    0.68    0.03    0.05    0.00  244.67
     58   4   B59H8301   .226E+00   61.00   88.00    1.47    0.00    0.00    0.00    0.20 1653.15  244.08 1011.09  386.56    0.30    0.72    0.09    0.05    0.00  244.20
     59   4   B63H8301   .149E+01   39.00  119.00    2.44    0.00    0.00    0.00    0.20 1653.15   22.88 1231.03  389.24    0.21    1.99    0.11    0.07    0.00   22.88
     60   4   B63H8301   .639E-01   39.00  119.00    0.56    0.00    0.00    0.00    0.20 1653.15   23.29 1226.10  390.90    0.03    0.56    0.02    0.07    0.00   23.29
     61   4   B59H8301   .360E-02   69.00   88.00    1.00    0.00    0.00    0.00    0.20 1653.15  362.42  903.98  376.03    0.34    1.16    0.12    0.04    0.00  362.49
     62   4   B59H8301   .356E-01   69.00   88.00    0.46    0.00    0.00    0.00    0.20 1653.15  362.72  903.70  376.06    0.18    1.13    0.06    0.04    0.00  362.90
     63   5   B59H8301   .679E-02   66.22   88.00    2.55    0.00   60.05    0.00    0.20 1573.72  401.96  743.31  419.96    0.08    4.57    2.93    0.30    0.00  402.07
     64   5   B59H8301   .120E-01   66.22   88.00    0.48    0.00   60.29    0.00    0.20 1573.72  402.38  742.87  420.09    0.02    3.98    2.04    0.30    0.00  402.72
     65   5   B59H8301   .454E+00   66.00   88.00    7.52    0.00    0.00    0.00    0.20 1573.72  272.78  896.11  398.23    0.33    2.37    0.09    1.95    0.00  272.78
     66   5   B59H8301   .320E-02   66.00   88.00    0.54    0.00    0.00    0.00    0.20 1573.72  285.93  878.63  399.95    0.01    0.84    0.00    1.88    0.00  286.21
     67   5   B59H8301   .937E+01   55.00   88.00    5.29    0.00    0.00    0.00    0.20 1573.72  141.01 1007.01  418.63    0.02    1.54    0.01    4.07    0.00  141.05
     68   5   B59H8301   .297E+00   55.00   88.00    0.54    0.00    0.00    0.00    0.20 1573.72  152.91  991.46  419.37    0.00    0.40    0.00    3.98    0.00  152.99
     69   5   B63H8301   .345E+01   35.00  119.00    3.91    0.00    0.00    0.00    0.20 1573.72    4.65 1167.20  393.09    0.00    3.99    0.00    3.93    0.00    4.65
     70   5   B63H8301   .520E-02   35.00  119.00    0.56    0.00    0.00    0.00    0.20 1573.72    5.60 1133.10  424.84    0.00    0.42    0.00    6.09    0.00    5.60
     71   5   B59H8301   .196E-01   60.00   88.00    0.42    0.00    0.00    0.00    0.20 1573.72  209.73  954.42  399.87    0.00    0.57    0.00    1.84    0.00  209.92
     72   5   B59H8301   .694E+00   60.00   88.00    6.42    0.00    0.00    0.00    0.20 1573.72  196.86  971.60  398.31    0.20    2.01    0.06    1.91    0.00  196.86
     73   5   B63H8301   .895E-01   36.00  119.00    4.27    0.00    0.00    0.00    0.20 1573.72    0.41 1240.63  343.38    0.00    5.04    0.00    1.93    0.00    0.41
     74   5   B63H8301   .799E-03   36.00  119.00    0.35    0.00    0.00    0.00    0.20 1573.72    8.07 1153.23  401.89    0.00    0.33    0.00    2.11    0.00    8.07
     75   5   B63H8301   .799E-01   39.00  119.00    0.50    0.00    0.00    0.00    0.20 1573.72   19.21 1143.25  400.59    0.02    0.49    0.01    0.08    0.00   19.21
     76   5   B63H8301   .660E+00   39.00  119.00    2.09    0.00    0.00    0.00    0.20 1573.72   18.78 1159.37  391.32    0.17    3.73    0.09    0.07    0.00   18.78



                AVE MONTHLY BASIN VALUES
                   SNOW                      WATER               SED
  MON     RAIN     FALL   SURF Q    LAT Q    YIELD       ET    YIELD      PET
          (MM)     (MM)     (MM)     (MM)     (MM)     (MM)   (T/HA)     (MM)
    1   172.16   104.80    33.53    36.76   100.25     5.59     0.13     8.88
    2   130.73    84.08    29.21    44.06   114.44     8.80     0.14    13.64
    3   122.75    45.25    37.70    54.15   135.37    17.85     0.19    28.25
    4    76.89     9.15     0.84    30.84    84.37    33.52     0.01    66.16
    5   119.07     0.00     3.11    29.39    70.30    47.78     0.02    95.48
    6   110.30     0.00     2.07    27.68    59.31    57.19     0.02   107.18
    7   148.84     0.00     5.73    33.49    64.15    68.01     0.03   108.24
    8   124.84     0.00     4.47    28.43    56.66    62.18     0.02    93.74
    9   142.19     0.00     9.33    37.39    68.71    39.65     0.03    58.56
   10    94.14     1.90     2.59    30.04    61.83    26.31     0.01    31.66
   11   148.57    45.82     4.74    43.80    76.81    12.53     0.02    13.02
   12   142.97    80.28     9.98    37.94    83.83     8.76     0.03     9.59

     AVE ANNUAL BASIN STRESS DAYS
               WATER STRESS DAYS =     0.62
               TEMPERATURE STRESS DAYS =   109.80
               NITROGEN STRESS DAYS =    51.37
               PHOSPHORUS STRESS DAYS =     0.05
               AERATION STRESS DAYS =     0.00
1
    SWAT Sep 7    VER 2018/Rev 670                                                  

    General Input/Output section (file.cio):                                        
    1/17/2019 12:00:00 AM ARCGIS-SWAT interface AV                                  
                                                                                    
         AVE ANNUAL BASIN VALUES

              PRECIP =   1534.6 MM
              SNOW FALL =  372.03 MM
              SNOW MELT =   373.82 MM
              SUBLIMATION =     4.59 MM
              SURFACE RUNOFF Q =   143.56 MM
              LATERAL SOIL Q =  434.36 MM
              TILE Q =     0.00 MM
              GROUNDWATER (SHAL AQ) Q =   399.06 MM
              GROUNDWATER (DEEP AQ) Q =     0.00 MM
              REVAP (SHAL AQ => SOIL/PLANTS) =   12.69 MM
              DEEP AQ RECHARGE =   164.01 MM
              TOTAL AQ RECHARGE =  573.95 MM
              TOTAL WATER YLD =   977.06 MM
              PERCOLATION OUT OF SOIL =  576.04 MM
              ET =    388.3 MM
              PET =    634.5MM
              TRANSMISSION LOSSES =     0.00 MM
              SEPTIC INFLOW =       0.00 MM
              TOTAL SEDIMENT LOADING =      0.65 T/HA
              TILE FROM IMPOUNDED WATER =     0.000 (MM)
              EVAPORATION FROM IMPOUNDED WATER =     0.000 (MM)
              SEEPAGE INTO SOIL FROM IMPOUNDED WATER =    0.000 (MM)
              OVERFLOW FROM IMPOUNDED WATER =    0.000 (MM)
1
    SWAT Sep 7    VER 2018/Rev 670                                                  

    General Input/Output section (file.cio):                                        
    1/17/2019 12:00:00 AM ARCGIS-SWAT interface AV                                  
                                                                                    
              AVE ANNUAL BASIN VALUES


              NUTRIENTS
                   ORGANIC N =     0.075 (KG/HA)
                   ORGANIC P =     0.011 (KG/HA)
                   NO3 YIELD (SQ) =     0.341 (KG/HA)
                   NO3 YIELD (LAT) =    1.322 (KG/HA)
                   NO3 YIELD (TILE) =    0.000 (KG/HA)
                   SOLP YIELD (TILE) =    0.000(KG/HA)
                   SOLP YIELD (SURF INLET RISER) =    0.000 (KG/HA)
                   SOL P YIELD =    0.120 (KG/HA)
                   NO3 LEACHED =     4.973 (KG/HA)
                   P LEACHED =     0.591 (KG/HA)
                   N UPTAKE =     8.583 (KG/HA)
                   P UPTAKE =    1.858 (KG/HA)
                   NO3 YIELD (GWQ) =     0.070 (KG/HA)
                   ACTIVE TO SOLUTION P FLOW =        -3.616 (KG/HA)
                   ACTIVE TO STABLE P FLOW =        -2.992 (KG/HA)
                   N FERTILIZER APPLIED =     0.779 (KG/HA)
                   P FERTILIZER APPLIED =     0.000 (KG/HA)
                   N FIXATION =     0.000 (KG/HA)
                   DENITRIFICATION =     0.181 (KG/HA)
                   HUMUS MIN ON ACTIVE ORG N =     0.246 (KG/HA)
                   ACTIVE TO STABLE ORG N =     0.498 (KG/HA)
                   HUMUS MIN ON ACTIVE ORG P =    0.052 (KG/HA)
                   MIN FROM FRESH ORG N =    5.810 (KG/HA)
                   MIN FROM FRESH ORG P =    1.253 (KG/HA)
                   NO3 IN RAINFALL =    12.434 (KG/HA)
                   INITIAL NO3 IN SOIL =      72.602 (KG/HA)
                   FINAL NO3 IN SOIL =         1.223 (KG/HA)
                   INITIAL ORG N IN SOIL =     164.672 (KG/HA)
                   FINAL ORG N IN SOIL =       187.085 (KG/HA)
                   INITIAL MIN P IN SOIL =    8904.592 (KG/HA)
                   FINAL MIN P IN SOIL =      8852.870 (KG/HA)
                   INITIAL ORG P IN SOIL =      20.172 (KG/HA)
                   FINAL ORG P IN SOIL =      25.352 (KG/HA)
                   NO3 IN FERT =     0.779 (KG/HA)
                   AMMONIA IN FERT =     0.000 (KG/HA)
                   ORG N IN FERT =     0.000 (KG/HA)
                   MINERAL P IN FERT =     0.000 (KG/HA)
                   ORG P IN FERT =     0.000 (KG/HA)
                   N REMOVED IN YIELD =     2.089 (KG/HA)
                   P REMOVED IN YIELD =     0.417 (KG/HA)
                   AMMONIA VOLATILIZATION =     0.000 (KG/HA)
                   AMMONIA NITRIFICATION =      0.000 (KG/HA)
                   NO3 EVAP-LAYER 2 TO 1 =    0.571

                   DIE-GRO P Q =           0.0 (No/M2)
                   DIE-GRO LP Q =           0.0 (No/M2)
                   DIE-GRO P SED =          0.0 (No/M2)
                   DIE-GRO LP SED =          0.0 (No/M2)
                   BACT P RUNOFF =          0.0 (No/M2)
                   BACT LP RUNOFF =          0.0 (No/M2)
                   BACT P SEDIMENT =          0.0 (No/M2)
                   BACT LP SEDIMENT =          0.0 (No/M2)
                   BACT P INCORP =          0.0 (No/M2)
                   BACT LP INCORP =          0.0 (No/M2)

                   NITRATE SEPTIC =         0.00 (kg/ha)
                   AMMONIA SEPTIC =         0.00 (kg/ha)
                   ORG N SEPTIC =         0.00 (kg/ha)
                   FRESH ORGN SEPTIC =         0.00 (kg/ha)
                   ORG P SEPTIC =         0.00 (kg/ha)
                   FRESH ORGP SEPTIC =         0.00 (kg/ha)
                   SOL P SEPTIC =         0.00 (kg/ha)
                   BOD SEPTIC =         0.00 (kg/ha)
